[TITLE]
;; Inlet-known-flow hydraulic routing baseline

[OPTIONS]
FLOW_UNITS           CFS
INFILTRATION         HORTON
FLOW_ROUTING         DYNWAVE
START_DATE           01/01/2025
START_TIME           00:00:00
REPORT_START_DATE    01/01/2025
REPORT_START_TIME    00:00:00
END_DATE             01/01/2025
END_TIME             06:00:00
WET_STEP             00:05:00
DRY_STEP             01:00:00
ROUTING_STEP         00:00:30
ALLOW_PONDING        NO

[JUNCTIONS]
;;Name  Elevation  MaxDepth  InitDepth  SurDepth  Aponded
IN_10  426.700  0.010  0.000  0.000  0.000
IN_100  401.450  7.550  0.000  0.000  0.000
IN_100_1  409.000  0.010  0.000  0.000  0.000
IN_101  408.200  0.010  0.000  0.000  0.000
IN_102  407.380  0.010  0.000  0.000  0.000
IN_105  404.320  0.010  0.000  0.000  0.000
IN_106  408.690  0.010  0.000  0.000  0.000
IN_106_1  405.900  0.010  0.000  0.000  0.000
IN_107  401.120  0.600  0.000  0.000  0.000
IN_108  401.420  0.300  0.000  0.000  0.000
IN_109  399.300  0.010  0.000  0.000  0.000
IN_11  424.850  0.010  0.000  0.000  0.000
IN_110_1  408.300  0.010  0.000  0.000  0.000
IN_111  408.000  0.010  0.000  0.000  0.000
IN_112  397.000  1.000  0.000  0.000  0.000
IN_112_2  397.320  0.010  0.000  0.000  0.000
IN_113  396.570  0.010  0.000  0.000  0.000
IN_114  398.210  0.010  0.000  0.000  0.000
IN_115  391.500  0.010  0.000  0.000  0.000
IN_115_1  393.280  0.010  0.000  0.000  0.000
IN_116_2  389.940  0.260  0.000  0.000  0.000
IN_116_3  389.910  0.290  0.000  0.000  0.000
IN_116_4  390.030  0.170  0.000  0.000  0.000
IN_117  403.644  0.010  0.000  0.000  0.000
IN_117_1  403.644  0.010  0.000  0.000  0.000
IN_117_2  403.464  0.010  0.000  0.000  0.000
IN_12  423.030  0.010  0.000  0.000  0.000
IN_13  423.860  0.010  0.000  0.000  0.000
IN_133  396.110  0.790  0.000  0.000  0.000
IN_134  395.440  1.460  0.000  0.000  0.000
IN_135  395.180  0.010  0.000  0.000  0.000
IN_136  397.490  0.010  0.000  0.000  0.000
IN_140  398.400  0.010  0.000  0.000  0.000
IN_141  400.100  0.010  0.000  0.000  0.000
IN_143  397.430  0.010  0.000  0.000  0.000
IN_144  397.850  0.010  0.000  0.000  0.000
IN_145  395.850  1.010  0.000  0.000  0.000
IN_146  397.490  0.010  0.000  0.000  0.000
IN_147  408.800  0.010  0.000  0.000  0.000
IN_148  412.930  0.010  0.000  0.000  0.000
IN_15  422.230  0.010  0.000  0.000  0.000
IN_150  407.820  0.010  0.000  0.000  0.000
IN_151  401.340  0.170  0.000  0.000  0.000
IN_152  398.800  1.640  0.000  0.000  0.000
IN_153  404.860  0.010  0.000  0.000  0.000
IN_154  398.320  0.010  0.000  0.000  0.000
IN_155  398.320  0.010  0.000  0.000  0.000
IN_157  394.500  0.010  0.000  0.000  0.000
IN_158  394.200  0.010  0.000  0.000  0.000
IN_159  393.000  0.010  0.000  0.000  0.000
IN_16  423.030  0.010  0.000  0.000  0.000
IN_160  394.600  0.010  0.000  0.000  0.000
IN_162  397.190  0.010  0.000  0.000  0.000
IN_169  393.560  0.010  0.000  0.000  0.000
IN_17  421.000  0.010  0.000  0.000  0.000
IN_170  393.200  0.010  0.000  0.000  0.000
IN_171  390.800  0.120  0.000  0.000  0.000
IN_172  394.140  0.010  0.000  0.000  0.000
IN_173  393.420  0.010  0.000  0.000  0.000
IN_174  395.480  0.010  0.000  0.000  0.000
IN_175  390.160  0.010  0.000  0.000  0.000
IN_176  390.160  0.010  0.000  0.000  0.000
IN_177  395.180  0.010  0.000  0.000  0.000
IN_178  395.860  0.010  0.000  0.000  0.000
IN_179  395.630  0.010  0.000  0.000  0.000
IN_18  425.490  0.010  0.000  0.000  0.000
IN_180  394.760  0.010  0.000  0.000  0.000
IN_181  395.380  0.010  0.000  0.000  0.000
IN_182  393.100  0.740  0.000  0.000  0.000
IN_183  391.600  0.010  0.000  0.000  0.000
IN_184  393.100  0.010  0.000  0.000  0.000
IN_185  389.120  0.010  0.000  0.000  0.000
IN_186  389.670  0.010  0.000  0.000  0.000
IN_187  389.670  0.010  0.000  0.000  0.000
IN_188  396.110  0.010  0.000  0.000  0.000
IN_189  389.290  0.010  0.000  0.000  0.000
IN_19  426.820  0.010  0.000  0.000  0.000
IN_190  388.650  0.010  0.000  0.000  0.000
IN_191  388.290  0.010  0.000  0.000  0.000
IN_192  388.640  0.010  0.000  0.000  0.000
IN_193  388.890  0.010  0.000  0.000  0.000
IN_20  426.900  0.010  0.000  0.000  0.000
IN_200  393.750  0.010  0.000  0.000  0.000
IN_201  392.500  0.010  0.000  0.000  0.000
IN_202  392.460  0.010  0.000  0.000  0.000
IN_203  392.260  0.010  0.000  0.000  0.000
IN_204  394.500  0.010  0.000  0.000  0.000
IN_206  401.360  0.010  0.000  0.000  0.000
IN_207  401.380  0.010  0.000  0.000  0.000
IN_208  400.570  0.010  0.000  0.000  0.000
IN_209  402.130  0.010  0.000  0.000  0.000
IN_21  424.800  0.010  0.000  0.000  0.000
IN_210  406.900  0.010  0.000  0.000  0.000
IN_211  402.930  0.010  0.000  0.000  0.000
IN_212  400.140  0.680  0.000  0.000  0.000
IN_213  395.300  5.520  0.000  0.000  0.000
IN_214  399.670  1.150  0.000  0.000  0.000
IN_22  424.800  0.010  0.000  0.000  0.000
IN_226  393.400  0.010  0.000  0.000  0.000
IN_227  392.880  0.010  0.000  0.000  0.000
IN_23  418.800  0.010  0.000  0.000  0.000
IN_24  416.500  0.240  0.000  0.000  0.000
IN_25  417.910  0.010  0.000  0.000  0.000
IN_26  417.750  0.010  0.000  0.000  0.000
IN_27  417.680  0.010  0.000  0.000  0.000
IN_28  414.660  0.010  0.000  0.000  0.000
IN_29  414.240  0.010  0.000  0.000  0.000
IN_3  432.800  0.010  0.000  0.000  0.000
IN_30  417.900  0.010  0.000  0.000  0.000
IN_30_1  424.280  0.010  0.000  0.000  0.000
IN_31  424.280  0.010  0.000  0.000  0.000
IN_32  425.000  0.010  0.000  0.000  0.000
IN_33  417.800  0.010  0.000  0.000  0.000
IN_34  414.110  0.330  0.000  0.000  0.000
IN_35  415.300  0.010  0.000  0.000  0.000
IN_36  414.900  0.010  0.000  0.000  0.000
IN_37  415.550  0.010  0.000  0.000  0.000
IN_38  413.630  0.010  0.000  0.000  0.000
IN_39  411.190  0.010  0.000  0.000  0.000
IN_40  412.340  0.010  0.000  0.000  0.000
IN_41  412.950  0.010  0.000  0.000  0.000
IN_42  412.880  0.010  0.000  0.000  0.000
IN_43  412.850  0.010  0.000  0.000  0.000
IN_43_1  411.120  0.010  0.000  0.000  0.000
IN_44  418.800  0.010  0.000  0.000  0.000
IN_45  415.900  0.010  0.000  0.000  0.000
IN_46  415.500  0.010  0.000  0.000  0.000
IN_47  415.620  0.010  0.000  0.000  0.000
IN_48  413.000  0.010  0.000  0.000  0.000
IN_49  413.100  0.010  0.000  0.000  0.000
IN_5  428.700  0.010  0.000  0.000  0.000
IN_50  413.870  0.010  0.000  0.000  0.000
IN_51  411.550  0.010  0.000  0.000  0.000
IN_52  410.680  0.010  0.000  0.000  0.000
IN_52_1  410.680  0.010  0.000  0.000  0.000
IN_53  410.680  0.010  0.000  0.000  0.000
IN_54  410.860  0.010  0.000  0.000  0.000
IN_55  406.200  0.010  0.000  0.000  0.000
IN_56  407.150  0.010  0.000  0.000  0.000
IN_56_1  407.700  0.010  0.000  0.000  0.000
IN_6  428.450  0.010  0.000  0.000  0.000
IN_60  408.690  0.010  0.000  0.000  0.000
IN_61  406.500  0.010  0.000  0.000  0.000
IN_62  406.260  0.010  0.000  0.000  0.000
IN_63  406.200  0.010  0.000  0.000  0.000
IN_66  407.900  0.010  0.000  0.000  0.000
IN_67  407.900  0.010  0.000  0.000  0.000
IN_6_1  426.310  0.510  0.000  0.000  0.000
IN_7  426.120  0.700  0.000  0.000  0.000
IN_74  401.020  3.980  0.000  0.000  0.000
IN_75  402.730  2.270  0.000  0.000  0.000
IN_75_1  403.550  0.010  0.000  0.000  0.000
IN_75_2  400.920  0.010  0.000  0.000  0.000
IN_76  402.290  0.010  0.000  0.000  0.000
IN_76_1  400.270  0.010  0.000  0.000  0.000
IN_76_2  398.890  0.730  0.000  0.000  0.000
IN_76_3  398.870  0.010  0.000  0.000  0.000
IN_76_41  397.000  2.070  0.000  0.000  0.000
IN_76_42  398.000  1.070  0.000  0.000  0.000
IN_76_43  400.000  0.010  0.000  0.000  0.000
IN_76_5  399.000  0.010  0.000  0.000  0.000
IN_77  397.510  0.010  0.000  0.000  0.000
IN_77_1  397.510  0.010  0.000  0.000  0.000
IN_77_5  395.740  2.030  0.000  0.000  0.000
IN_77_6  395.740  0.010  0.000  0.000  0.000
IN_79  395.860  0.010  0.000  0.000  0.000
IN_8  427.700  0.010  0.000  0.000  0.000
IN_80  395.860  0.010  0.000  0.000  0.000
IN_81  395.690  0.010  0.000  0.000  0.000
IN_82  392.600  0.010  0.000  0.000  0.000
IN_84  417.660  0.010  0.000  0.000  0.000
IN_85  419.500  0.010  0.000  0.000  0.000
IN_86  410.540  0.740  0.000  0.000  0.000
IN_87  408.240  2.300  0.000  0.000  0.000
IN_88  410.540  0.010  0.000  0.000  0.000
IN_89  410.000  0.010  0.000  0.000  0.000
IN_9  428.700  0.010  0.000  0.000  0.000
IN_90  408.340  0.010  0.000  0.000  0.000
IN_91  406.560  0.010  0.000  0.000  0.000
IN_92  407.420  0.010  0.000  0.000  0.000
IN_93  406.220  0.010  0.000  0.000  0.000
IN_94  404.360  0.010  0.000  0.000  0.000
IN_95  410.000  0.010  0.000  0.000  0.000
IN_98  407.600  1.400  0.000  0.000  0.000
IN_99  408.020  0.980  0.000  0.000  0.000
J_1  421.130  6.480  0.000  0.000  0.000
J_100  379.400  11.110  0.000  0.000  0.000
J_11  409.230  8.370  0.000  0.000  0.000
J_111  381.690  15.210  0.000  0.000  0.000
J_112  387.530  7.040  0.000  0.000  0.000
J_113  386.660  6.840  0.000  0.000  0.000
J_113_1  386.630  6.850  0.000  0.000  0.000
J_115  386.290  8.710  0.000  0.000  0.000
J_117  382.190  14.670  0.000  0.000  0.000
J_118  383.580  10.070  0.000  0.000  0.000
J_119  381.330  12.930  0.000  0.000  0.000
J_12  412.690  7.090  0.000  0.000  0.000
J_120  385.130  7.020  0.000  0.000  0.000
J_121  380.080  12.720  0.000  0.000  0.000
J_122  395.950  6.080  0.000  0.000  0.000
J_123  393.850  7.660  0.000  0.000  0.000
J_124  390.790  9.650  0.000  0.000  0.000
J_125  387.130  7.580  0.000  0.000  0.000
J_126  386.900  7.590  0.000  0.000  0.000
J_127  386.380  8.350  0.000  0.000  0.000
J_128  383.060  9.870  0.000  0.000  0.000
J_129  381.690  9.910  0.000  0.000  0.000
J_13  411.880  6.490  0.000  0.000  0.000
J_130  380.020  12.780  0.000  0.000  0.000
J_131  378.810  12.110  0.000  0.000  0.000
J_132  379.000  10.940  0.000  0.000  0.000
J_132_1  378.720  10.100  0.000  0.000  0.000
J_133  377.450  11.370  0.000  0.000  0.000
J_134_1  377.350  9.650  0.000  0.000  0.000
J_135  382.470  7.650  0.000  0.000  0.000
J_138  384.500  7.560  0.000  0.000  0.000
J_139  384.140  6.780  0.000  0.000  0.000
J_14  409.880  7.730  0.000  0.000  0.000
J_140  383.810  6.720  0.000  0.000  0.000
J_141  383.400  6.300  0.000  0.000  0.000
J_142  386.490  6.010  0.000  0.000  0.000
J_143  382.100  7.680  0.000  0.000  0.000
J_144  382.170  5.880  0.000  0.000  0.000
J_145  381.660  6.900  0.000  0.000  0.000
J_146  388.240  5.830  0.000  0.000  0.000
J_147  385.880  8.190  0.000  0.000  0.000
J_148  386.820  6.450  0.000  0.000  0.000
J_149  386.220  7.620  0.000  0.000  0.000
J_15  408.830  8.770  0.000  0.000  0.000
J_150  381.760  7.260  0.000  0.000  0.000
J_151  380.590  7.330  0.000  0.000  0.000
J_152  380.760  6.390  0.000  0.000  0.000
J_153  380.490  7.680  0.000  0.000  0.000
J_153_1  380.570  7.350  0.000  0.000  0.000
J_154  380.020  7.540  0.000  0.000  0.000
J_155  379.960  7.670  0.000  0.000  0.000
J_156  378.180  9.010  0.000  0.000  0.000
J_16  410.620  5.840  0.000  0.000  0.000
J_160  382.250  8.550  0.000  0.000  0.000
J_161  380.980  9.620  0.000  0.000  0.000
J_162  380.120  11.430  0.000  0.000  0.000
J_164  381.630  10.470  0.000  0.000  0.000
J_165  379.500  12.600  0.000  0.000  0.000
J_166  391.350  8.780  0.000  0.000  0.000
J_167  392.000  7.180  0.000  0.000  0.000
J_168  380.650  21.080  0.000  0.000  0.000
J_169  389.910  10.910  0.000  0.000  0.000
J_17  409.540  10.020  0.000  0.000  0.000
J_178  379.280  12.640  0.000  0.000  0.000
J_179  381.390  9.110  0.000  0.000  0.000
J_18  408.280  8.460  0.000  0.000  0.000
J_180_1  379.180  12.920  0.000  0.000  0.000
J_181  382.660  5.840  0.000  0.000  0.000
J_19  407.780  6.580  0.000  0.000  0.000
J_2  420.360  8.140  0.000  0.000  0.000
J_20  407.230  7.610  0.000  0.000  0.000
J_21  406.200  6.900  0.000  0.000  0.000
J_22  405.540  9.510  0.000  0.000  0.000
J_23  405.190  8.600  0.000  0.000  0.000
J_24  405.360  7.790  0.000  0.000  0.000
J_25  404.880  8.740  0.000  0.000  0.000
J_26  404.070  9.690  0.000  0.000  0.000
J_26_1  407.330  7.970  0.000  0.000  0.000
J_27  407.950  6.520  0.000  0.000  0.000
J_27_1  406.750  7.770  0.000  0.000  0.000
J_28  403.850  10.320  0.000  0.000  0.000
J_29  403.040  11.400  0.000  0.000  0.000
J_3  418.960  7.860  0.000  0.000  0.000
J_30  403.980  7.630  0.000  0.000  0.000
J_31  402.240  9.220  0.000  0.000  0.000
J_32  405.170  7.330  0.000  0.000  0.000
J_33  404.760  8.250  0.000  0.000  0.000
J_34  404.560  6.940  0.000  0.000  0.000
J_35  402.380  8.210  0.000  0.000  0.000
J_37  400.830  8.780  0.000  0.000  0.000
J_38  400.880  8.890  0.000  0.000  0.000
J_39  400.670  8.630  0.000  0.000  0.000
J_4  417.560  5.770  0.000  0.000  0.000
J_40  402.600  7.190  0.000  0.000  0.000
J_41  400.000  8.500  0.000  0.000  0.000
J_42  400.170  9.020  0.000  0.000  0.000
J_43  408.260  6.730  0.000  0.000  0.000
J_44  406.120  6.900  0.000  0.000  0.000
J_45  405.020  5.380  0.000  0.000  0.000
J_46  404.650  5.980  0.000  0.000  0.000
J_47  401.530  6.970  0.000  0.000  0.000
J_48  401.260  7.240  0.000  0.000  0.000
J_49  398.870  7.930  0.000  0.000  0.000
J_4_1  417.270  6.820  0.000  0.000  0.000
J_5  417.270  6.820  0.000  0.000  0.000
J_50  400.150  6.850  0.000  0.000  0.000
J_51  398.970  7.830  0.000  0.000  0.000
J_52  397.790  8.360  0.000  0.000  0.000
J_53  397.760  8.060  0.000  0.000  0.000
J_54  396.620  8.050  0.000  0.000  0.000
J_57  396.430  8.390  0.000  0.000  0.000
J_6  415.890  9.280  0.000  0.000  0.000
J_61  396.950  7.870  0.000  0.000  0.000
J_62  393.940  10.310  0.000  0.000  0.000
J_63  392.730  11.960  0.000  0.000  0.000
J_65  365.290  39.710  0.000  0.000  0.000
J_65_1  388.760  11.700  0.000  0.000  0.000
J_68_1  392.090  7.460  0.000  0.000  0.000
J_69  387.180  12.440  0.000  0.000  0.000
J_6_1  413.120  8.340  0.000  0.000  0.000
J_7  413.870  7.980  0.000  0.000  0.000
J_70  389.470  8.900  0.000  0.000  0.000
J_70_01  389.470  8.860  0.000  0.000  0.000
J_70_1  391.410  6.160  0.000  0.000  0.000
J_70_2  388.970  10.100  0.000  0.000  0.000
J_70_3  387.750  9.750  0.000  0.000  0.000
J_70_4  385.750  12.060  0.000  0.000  0.000
J_71  384.580  12.620  0.000  0.000  0.000
J_71_1  381.230  15.970  0.000  0.000  0.000
J_71_5  389.870  7.900  0.000  0.000  0.000
J_71_6  386.770  8.300  0.000  0.000  0.000
J_71_7  384.880  10.120  0.000  0.000  0.000
J_71_8  384.820  10.180  0.000  0.000  0.000
J_71_9  380.460  16.540  0.000  0.000  0.000
J_72  380.420  16.780  0.000  0.000  0.000
J_74  379.610  15.570  0.000  0.000  0.000
J_75  377.980  14.260  0.000  0.000  0.000
J_76  384.310  6.950  0.000  0.000  0.000
J_77  377.580  14.420  0.000  0.000  0.000
J_78  405.230  6.140  0.000  0.000  0.000
J_78_1  405.180  6.100  0.000  0.000  0.000
J_79  401.750  7.380  0.000  0.000  0.000
J_7_1  413.100  8.450  0.000  0.000  0.000
J_8  414.690  7.310  0.000  0.000  0.000
J_80  401.140  9.400  0.000  0.000  0.000
J_81  398.100  7.880  0.000  0.000  0.000
J_81_1  397.290  8.910  0.000  0.000  0.000
J_82  396.610  9.530  0.000  0.000  0.000
J_83  393.430  9.070  0.000  0.000  0.000
J_83_1  393.430  9.320  0.000  0.000  0.000
J_85  399.830  9.170  0.000  0.000  0.000
J_86  398.590  6.360  0.000  0.000  0.000
J_87  396.930  12.070  0.000  0.000  0.000
J_88  394.550  3.450  0.000  0.000  0.000
J_88_1  392.840  8.660  0.000  0.000  0.000
J_9  413.120  8.280  0.000  0.000  0.000
J_90  395.710  5.930  0.000  0.000  0.000
J_90_1  395.670  6.210  0.000  0.000  0.000
J_92  394.960  6.760  0.000  0.000  0.000
J_93  391.030  5.770  0.000  0.000  0.000
J_94  387.050  9.750  0.000  0.000  0.000
J_94_1  388.910  8.090  0.000  0.000  0.000
J_94_2  392.220  6.120  0.000  0.000  0.000
J_94_4  388.170  10.230  0.000  0.000  0.000
J_95  385.100  12.900  0.000  0.000  0.000
J_95_15  386.680  7.320  0.000  0.000  0.000
J_95_2  385.740  8.100  0.000  0.000  0.000
J_95_3  382.390  12.610  0.000  0.000  0.000
J_95_4  380.180  11.310  0.000  0.000  0.000
J_96  379.910  10.150  0.000  0.000  0.000
J_98  379.730  10.470  0.000  0.000  0.000

[OUTFALLS]
;;Name  Elevation  Type  Stage Data  Gated  Route To
O_134_1  377.350  FREE
O_135  382.470  FREE
O_156  378.180  FREE
O_77  377.580  FREE

[CONDUITS]
;;Name  FromNode  ToNode  Length  Roughness  InOffset  OutOffset  InitFlow  MaxFlow
L_IN_3__J_1  IN_3  J_1  650.00  0.013  0.00  0.00  0.00  0.00
L_IN_5__J_2  IN_5  J_2  690.00  0.013  0.00  0.00  0.00  0.00
L_IN_6__J_3  IN_6  J_3  1725.00  0.013  0.00  0.00  0.00  0.00
L_IN_6_1__J_3  IN_6_1  J_3  1228.00  0.013  0.00  0.00  0.00  0.00
L_IN_7__J_3  IN_7  J_3  1136.00  0.013  0.00  0.00  0.00  0.00
L_IN_8__J_4_1  IN_8  J_4_1  1180.00  0.013  0.00  0.00  0.00  0.00
L_IN_9__J_5  IN_9  J_5  865.00  0.013  0.00  0.00  0.00  0.00
L_IN_10__J_6  IN_10  J_6  1330.00  0.013  0.00  0.00  0.00  0.00
L_IN_11__J_6_1  IN_11  J_6_1  561.00  0.013  0.00  0.00  0.00  0.00
L_IN_12__J_7_1  IN_12  J_7_1  442.00  0.013  0.00  0.00  0.00  0.00
L_IN_13__J_7_1  IN_13  J_7_1  680.00  0.013  0.00  0.00  0.00  0.00
L_IN_15__J_9  IN_15  J_9  919.00  0.013  0.00  0.00  0.00  0.00
L_IN_16__J_11  IN_16  J_11  1205.00  0.013  0.00  0.00  0.00  0.00
L_IN_17__J_12  IN_17  J_12  977.00  0.013  0.00  0.00  0.00  0.00
L_IN_18__J_13  IN_18  J_13  1328.00  0.013  0.00  0.00  0.00  0.00
L_IN_19__J_15  IN_19  J_15  1630.00  0.013  0.00  0.00  0.00  0.00
L_IN_20__J_15  IN_20  J_15  1568.00  0.013  0.00  0.00  0.00  0.00
L_IN_21__J_16  IN_21  J_16  1735.00  0.013  0.00  0.00  0.00  0.00
L_IN_22__J_16  IN_22  J_16  1735.00  0.013  0.00  0.00  0.00  0.00
L_IN_23__J_18  IN_23  J_18  1101.00  0.013  0.00  0.00  0.00  0.00
L_IN_24__J_18  IN_24  J_18  634.00  0.013  0.00  0.00  0.00  0.00
L_IN_25__J_20  IN_25  J_20  1539.00  0.013  0.00  0.00  0.00  0.00
L_IN_26__J_21  IN_26  J_21  844.00  0.013  0.00  0.00  0.00  0.00
L_IN_27__J_21  IN_27  J_21  834.00  0.013  0.00  0.00  0.00  0.00
L_IN_28__J_23  IN_28  J_23  285.00  0.013  0.00  0.00  0.00  0.00
L_IN_29__J_23  IN_29  J_23  359.00  0.013  0.00  0.00  0.00  0.00
L_IN_30__J_25  IN_30  J_25  799.00  0.013  0.00  0.00  0.00  0.00
L_IN_30_1__J_26  IN_30_1  J_26  1903.00  0.013  0.00  0.00  0.00  0.00
L_IN_31__J_26_1  IN_31  J_26_1  1936.00  0.013  0.00  0.00  0.00  0.00
L_IN_32__J_27  IN_32  J_27  2207.00  0.013  0.00  0.00  0.00  0.00
L_IN_33__J_27_1  IN_33  J_27_1  779.00  0.013  0.00  0.00  0.00  0.00
L_IN_34__J_29  IN_34  J_29  670.00  0.013  0.00  0.00  0.00  0.00
L_IN_35__J_31  IN_35  J_31  939.00  0.013  0.00  0.00  0.00  0.00
L_IN_36__J_31  IN_36  J_31  774.00  0.013  0.00  0.00  0.00  0.00
L_IN_37__J_32  IN_37  J_32  676.00  0.013  0.00  0.00  0.00  0.00
L_IN_38__J_34  IN_38  J_34  1309.00  0.013  0.00  0.00  0.00  0.00
L_IN_39__J_35  IN_39  J_35  100.00  0.013  0.00  0.00  0.00  0.00
L_IN_40__J_37  IN_40  J_37  791.00  0.013  0.00  0.00  0.00  0.00
L_IN_41__J_37  IN_41  J_37  1027.00  0.013  0.00  0.00  0.00  0.00
L_IN_42__J_39  IN_42  J_39  952.00  0.013  0.00  0.00  0.00  0.00
L_IN_43__J_40  IN_43  J_40  1369.00  0.013  0.00  0.00  0.00  0.00
L_IN_43_1__J_40  IN_43_1  J_40  726.00  0.013  0.00  0.00  0.00  0.00
L_IN_44__J_42  IN_44  J_42  1256.00  0.013  0.00  0.00  0.00  0.00
L_IN_45__J_43  IN_45  J_43  1060.00  0.013  0.00  0.00  0.00  0.00
L_IN_46__J_44  IN_46  J_44  1780.00  0.013  0.00  0.00  0.00  0.00
L_IN_47__J_45  IN_47  J_45  621.00  0.013  0.00  0.00  0.00  0.00
L_IN_48__J_46  IN_48  J_46  1213.00  0.013  0.00  0.00  0.00  0.00
L_IN_49__J_46  IN_49  J_46  1863.00  0.013  0.00  0.00  0.00  0.00
L_IN_50__J_48  IN_50  J_48  2472.00  0.013  0.00  0.00  0.00  0.00
L_IN_51__J_49  IN_51  J_49  1015.00  0.013  0.00  0.00  0.00  0.00
L_IN_52__J_51  IN_52  J_51  1745.00  0.013  0.00  0.00  0.00  0.00
L_IN_52_1__J_51  IN_52_1  J_51  1828.00  0.013  0.00  0.00  0.00  0.00
L_IN_53__J_51  IN_53  J_51  1585.00  0.013  0.00  0.00  0.00  0.00
L_IN_54__J_53  IN_54  J_53  2284.00  0.013  0.00  0.00  0.00  0.00
L_IN_55__J_53  IN_55  J_53  1769.00  0.013  0.00  0.00  0.00  0.00
L_IN_56__J_54  IN_56  J_54  595.00  0.013  0.00  0.00  0.00  0.00
L_IN_56_1__J_54  IN_56_1  J_54  892.00  0.013  0.00  0.00  0.00  0.00
L_IN_60__J_57  IN_60  J_57  1152.00  0.013  0.00  0.00  0.00  0.00
L_IN_61__J_57  IN_61  J_57  922.00  0.013  0.00  0.00  0.00  0.00
L_IN_62__J_62  IN_62  J_62  535.00  0.013  0.00  0.00  0.00  0.00
L_IN_63__J_62  IN_63  J_62  564.00  0.013  0.00  0.00  0.00  0.00
L_IN_66__J_63  IN_66  J_63  876.00  0.013  0.00  0.00  0.00  0.00
L_IN_67__J_63  IN_67  J_63  886.00  0.013  0.00  0.00  0.00  0.00
L_IN_74__J_65  IN_74  J_65  383.00  0.013  0.00  0.00  0.00  0.00
L_IN_75__J_65  IN_75  J_65  733.00  0.013  0.00  0.00  0.00  0.00
L_IN_75_1__J_65_1  IN_75_1  J_65_1  1384.00  0.013  0.00  0.00  0.00  0.00
L_IN_75_2__J_65_1  IN_75_2  J_65_1  697.00  0.013  0.00  0.00  0.00  0.00
L_IN_76__J_69  IN_76  J_69  810.00  0.013  0.00  0.00  0.00  0.00
L_IN_76_2__J_69  IN_76_2  J_69  209.00  0.013  0.00  0.00  0.00  0.00
L_IN_76_1__J_70  IN_76_1  J_70  468.00  0.013  0.00  0.00  0.00  0.00
L_IN_76_3__J_70_01  IN_76_3  J_70_01  231.00  0.013  0.00  0.00  0.00  0.00
L_IN_76_41__J_70_2  IN_76_41  J_70_2  290.00  0.013  0.00  0.00  0.00  0.00
L_IN_76_42__J_70_2  IN_76_42  J_70_2  433.00  0.013  0.00  0.00  0.00  0.00
L_IN_76_43__J_70_3  IN_76_43  J_70_3  528.00  0.013  0.00  0.00  0.00  0.00
L_IN_76_5__J_71  IN_76_5  J_71  1089.00  0.013  0.00  0.00  0.00  0.00
L_IN_77__J_71_1  IN_77  J_71_1  382.00  0.013  0.00  0.00  0.00  0.00
L_IN_77_1__J_71_1  IN_77_1  J_71_1  498.00  0.013  0.00  0.00  0.00  0.00
L_IN_77_5__J_71_5  IN_77_5  J_71_5  365.00  0.013  0.00  0.00  0.00  0.00
L_IN_77_6__J_71_7  IN_77_6  J_71_7  401.00  0.013  0.00  0.00  0.00  0.00
L_IN_79__J_74  IN_79  J_74  1679.00  0.013  0.00  0.00  0.00  0.00
L_IN_80__J_74  IN_80  J_74  1940.00  0.013  0.00  0.00  0.00  0.00
L_IN_81__J_74  IN_81  J_74  1216.00  0.013  0.00  0.00  0.00  0.00
L_IN_82__J_75  IN_82  J_75  398.00  0.013  0.00  0.00  0.00  0.00
L_J_1__J_2  J_1  J_2  176.00  0.013  0.00  0.00  0.00  0.00
L_J_2__J_3  J_2  J_3  943.00  0.013  0.00  0.00  0.00  0.00
L_J_3__J_4  J_3  J_4  826.00  0.013  0.00  0.00  0.00  0.00
L_J_4__J_4_1  J_4  J_4_1  214.00  0.013  0.00  0.00  0.00  0.00
L_J_4_1__J_5  J_4_1  J_5  101.00  0.013  0.00  0.00  0.00  0.00
L_J_5__J_6  J_5  J_6  519.00  0.013  0.00  0.00  0.00  0.00
L_J_6__J_6_1  J_6  J_6_1  606.00  0.013  0.00  0.00  0.00  0.00
L_J_6_1__J_7  J_6_1  J_7  32.00  0.013  0.00  0.00  0.00  0.00
L_J_7__J_7_1  J_7  J_7_1  300.00  0.013  0.00  0.00  0.00  0.00
L_J_7_1__J_8  J_7_1  J_8  30.00  0.013  0.00  0.00  0.00  0.00
L_J_8__J_9  J_8  J_9  291.00  0.013  0.00  0.00  0.00  0.00
L_J_9__J_11  J_9  J_11  683.00  0.013  0.00  0.00  0.00  0.00
L_J_11__J_12  J_11  J_12  50.00  0.013  0.00  0.00  0.00  0.00
L_J_12__J_13  J_12  J_13  356.00  0.013  0.00  0.00  0.00  0.00
L_J_13__J_14  J_13  J_14  264.00  0.013  0.00  0.00  0.00  0.00
L_J_14__J_15  J_14  J_15  76.00  0.013  0.00  0.00  0.00  0.00
L_J_15__J_16  J_15  J_16  630.00  0.013  0.00  0.00  0.00  0.00
L_J_16__J_17  J_16  J_17  649.00  0.013  0.00  0.00  0.00  0.00
L_J_17__J_18  J_17  J_18  183.00  0.013  0.00  0.00  0.00  0.00
L_J_18__J_19  J_18  J_19  230.00  0.013  0.00  0.00  0.00  0.00
L_J_19__J_20  J_19  J_20  72.00  0.013  0.00  0.00  0.00  0.00
L_J_20__J_21  J_20  J_21  658.00  0.013  0.00  0.00  0.00  0.00
L_J_21__J_22  J_21  J_22  251.00  0.013  0.00  0.00  0.00  0.00
L_J_22__J_23  J_22  J_23  146.00  0.013  0.00  0.00  0.00  0.00
L_J_23__J_24  J_23  J_24  114.00  0.013  0.00  0.00  0.00  0.00
L_J_24__J_25  J_24  J_25  73.00  0.013  0.00  0.00  0.00  0.00
L_J_25__J_26  J_25  J_26  227.00  0.013  0.00  0.00  0.00  0.00
L_J_26__J_26_1  J_26  J_26_1  189.00  0.013  0.00  0.00  0.00  0.00
L_J_26_1__J_27  J_26_1  J_27  166.00  0.013  0.00  0.00  0.00  0.00
L_J_27__J_27_1  J_27  J_27_1  176.00  0.013  0.00  0.00  0.00  0.00
L_J_27_1__J_28  J_27_1  J_28  350.00  0.013  0.00  0.00  0.00  0.00
L_J_28__J_29  J_28  J_29  113.00  0.013  0.00  0.00  0.00  0.00
L_J_29__J_30  J_29  J_30  512.00  0.013  0.00  0.00  0.00  0.00
L_J_30__J_31  J_30  J_31  109.00  0.013  0.00  0.00  0.00  0.00
L_J_31__J_32  J_31  J_32  131.00  0.013  0.00  0.00  0.00  0.00
L_J_32__J_33  J_32  J_33  278.00  0.013  0.00  0.00  0.00  0.00
L_J_33__J_34  J_33  J_34  96.00  0.013  0.00  0.00  0.00  0.00
L_J_34__J_35  J_34  J_35  304.00  0.013  0.00  0.00  0.00  0.00
L_J_37__J_38  J_37  J_38  156.00  0.013  0.00  0.00  0.00  0.00
L_J_38__J_39  J_38  J_39  156.00  0.013  0.00  0.00  0.00  0.00
L_J_39__J_40  J_39  J_40  106.00  0.013  0.00  0.00  0.00  0.00
L_J_40__J_41  J_40  J_41  531.00  0.013  0.00  0.00  0.00  0.00
L_J_41__J_42  J_41  J_42  107.00  0.013  0.00  0.00  0.00  0.00
L_J_42__J_43  J_42  J_43  770.00  0.013  0.00  0.00  0.00  0.00
L_J_43__J_44  J_43  J_44  476.00  0.013  0.00  0.00  0.00  0.00
L_J_44__J_45  J_44  J_45  455.00  0.013  0.00  0.00  0.00  0.00
L_J_45__J_46  J_45  J_46  50.00  0.013  0.00  0.00  0.00  0.00
L_J_46__J_47  J_46  J_47  750.00  0.013  0.00  0.00  0.00  0.00
L_J_47__J_48  J_47  J_48  14.00  0.013  0.00  0.00  0.00  0.00
L_J_48__J_49  J_48  J_49  540.00  0.013  0.00  0.00  0.00  0.00
L_J_49__J_50  J_49  J_50  38.00  0.013  0.00  0.00  0.00  0.00
L_J_50__J_51  J_50  J_51  470.00  0.013  0.00  0.00  0.00  0.00
L_J_51__J_52  J_51  J_52  538.00  0.013  0.00  0.00  0.00  0.00
L_J_52__J_53  J_52  J_53  134.00  0.013  0.00  0.00  0.00  0.00
L_J_53__J_54  J_53  J_54  496.00  0.013  0.00  0.00  0.00  0.00
L_J_57__J_61  J_57  J_61  420.00  0.013  0.00  0.00  0.00  0.00
L_J_61__J_62  J_61  J_62  216.00  0.013  0.00  0.00  0.00  0.00
L_J_62__J_63  J_62  J_63  619.00  0.013  0.00  0.00  0.00  0.00
L_J_63__J_65  J_63  J_65  330.00  0.013  0.00  0.00  0.00  0.00
L_J_65__J_65_1  J_65  J_65_1  1237.00  0.013  0.00  0.00  0.00  0.00
L_J_68_1__J_69  J_68_1  J_69  87.00  0.013  0.00  0.00  0.00  0.00
L_J_69__J_70  J_69  J_70  1195.00  0.013  0.00  0.00  0.00  0.00
L_J_70__J_70_01  J_70  J_70_01  49.00  0.013  0.00  0.00  0.00  0.00
L_J_70_01__J_70_1  J_70_01  J_70_1  309.00  0.013  0.00  0.00  0.00  0.00
L_J_70_1__J_70_2  J_70_1  J_70_2  194.00  0.013  0.00  0.00  0.00  0.00
L_J_70_2__J_70_3  J_70_2  J_70_3  418.00  0.013  0.00  0.00  0.00  0.00
L_J_70_3__J_70_4  J_70_3  J_70_4  125.00  0.013  0.00  0.00  0.00  0.00
L_J_70_4__J_71  J_70_4  J_71  844.00  0.013  0.00  0.00  0.00  0.00
L_J_71__J_71_1  J_71  J_71_1  960.00  0.013  0.00  0.00  0.00  0.00
L_J_71_5__J_71_6  J_71_5  J_71_6  501.00  0.013  0.00  0.00  0.00  0.00
L_J_71_6__J_71_7  J_71_6  J_71_7  36.00  0.013  0.00  0.00  0.00  0.00
L_J_71_7__J_71_8  J_71_7  J_71_8  40.00  0.013  0.00  0.00  0.00  0.00
L_J_71_8__J_71_9  J_71_8  J_71_9  152.00  0.013  0.00  0.00  0.00  0.00
L_J_71_9__J_72  J_71_9  J_72  27.00  0.013  0.00  0.00  0.00  0.00
L_J_72__J_74  J_72  J_74  460.00  0.013  0.00  0.00  0.00  0.00
L_J_74__J_75  J_74  J_75  1008.00  0.013  0.00  0.00  0.00  0.00
L_J_75__J_76  J_75  J_76  408.00  0.013  0.00  0.00  0.00  0.00
L_J_76__J_77  J_76  J_77  155.00  0.013  0.00  0.00  0.00  0.00
L_J_77__O_77  J_77  O_77  236.00  0.013  0.00  0.00  0.00  0.00
L_IN_84__J_78  IN_84  J_78  2215.00  0.013  0.00  0.00  0.00  0.00
L_IN_85__J_78_1  IN_85  J_78_1  3792.00  0.013  0.00  0.00  0.00  0.00
L_IN_86__J_78_1  IN_86  J_78_1  567.00  0.013  0.00  0.00  0.00  0.00
L_IN_87__J_80  IN_87  J_80  1010.00  0.013  0.00  0.00  0.00  0.00
L_IN_88__J_80  IN_88  J_80  1238.00  0.013  0.00  0.00  0.00  0.00
L_IN_89__J_81  IN_89  J_81  1984.00  0.013  0.00  0.00  0.00  0.00
L_IN_90__J_81_1  IN_90  J_81_1  601.00  0.013  0.00  0.00  0.00  0.00
L_IN_91__J_81_1  IN_91  J_81_1  204.00  0.013  0.00  0.00  0.00  0.00
L_IN_92__J_82  IN_92  J_82  799.00  0.013  0.00  0.00  0.00  0.00
L_IN_93__J_82  IN_93  J_82  467.00  0.013  0.00  0.00  0.00  0.00
L_IN_94__J_83  IN_94  J_83  705.00  0.013  0.00  0.00  0.00  0.00
L_IN_95__J_83_1  IN_95  J_83_1  872.00  0.013  0.00  0.00  0.00  0.00
L_IN_98__J_85  IN_98  J_85  1450.00  0.013  0.00  0.00  0.00  0.00
L_IN_99__J_85  IN_99  J_85  489.00  0.013  0.00  0.00  0.00  0.00
L_IN_100__J_87  IN_100  J_87  390.00  0.013  0.00  0.00  0.00  0.00
L_IN_100_1__J_88  IN_100_1  J_88  899.00  0.013  0.00  0.00  0.00  0.00
L_IN_101__J_88  IN_101  J_88  1942.00  0.013  0.00  0.00  0.00  0.00
L_IN_102__J_88_1  IN_102  J_88_1  2263.00  0.013  0.00  0.00  0.00  0.00
L_IN_105__J_90  IN_105  J_90  1142.00  0.013  0.00  0.00  0.00  0.00
L_IN_106__J_90_1  IN_106  J_90_1  1510.00  0.013  0.00  0.00  0.00  0.00
L_IN_106_1__J_90_1  IN_106_1  J_90_1  691.00  0.013  0.00  0.00  0.00  0.00
L_IN_107__J_92  IN_107  J_92  1315.00  0.013  0.00  0.00  0.00  0.00
L_IN_108__J_92  IN_108  J_92  1803.00  0.013  0.00  0.00  0.00  0.00
L_IN_109__J_93  IN_109  J_93  667.00  0.013  0.00  0.00  0.00  0.00
L_IN_110_1__J_94_1  IN_110_1  J_94_1  2240.00  0.013  0.00  0.00  0.00  0.00
L_IN_111__J_94_4  IN_111  J_94_4  2609.00  0.013  0.00  0.00  0.00  0.00
L_IN_112__J_95  IN_112  J_95  695.00  0.013  0.00  0.00  0.00  0.00
L_IN_112_2__J_95_15  IN_112_2  J_95_15  530.00  0.013  0.00  0.00  0.00  0.00
L_IN_113__J_95_15  IN_113  J_95_15  763.00  0.013  0.00  0.00  0.00  0.00
L_IN_114__J_95_4  IN_114  J_95_4  1775.00  0.013  0.00  0.00  0.00  0.00
L_IN_115__J_95_4  IN_115  J_95_4  648.00  0.013  0.00  0.00  0.00  0.00
L_IN_115_1__J_96  IN_115_1  J_96  681.00  0.013  0.00  0.00  0.00  0.00
L_IN_116_2__J_98  IN_116_2  J_98  189.00  0.013  0.00  0.00  0.00  0.00
L_IN_116_3__J_98  IN_116_3  J_98  337.00  0.013  0.00  0.00  0.00  0.00
L_IN_116_4__J_98  IN_116_4  J_98  321.00  0.013  0.00  0.00  0.00  0.00
L_IN_117__J_100  IN_117  J_100  624.00  0.013  0.00  0.00  0.00  0.00
L_IN_117_1__J_100  IN_117_1  J_100  478.00  0.013  0.00  0.00  0.00  0.00
L_IN_117_2__J_100  IN_117_2  J_100  548.00  0.013  0.00  0.00  0.00  0.00
L_IN_133__J_111  IN_133  J_111  672.00  0.013  0.00  0.00  0.00  0.00
L_IN_134__J_111  IN_134  J_111  350.00  0.013  0.00  0.00  0.00  0.00
L_IN_135__J_112  IN_135  J_112  732.00  0.013  0.00  0.00  0.00  0.00
L_IN_136__J_113  IN_136  J_113  1773.00  0.013  0.00  0.00  0.00  0.00
L_IN_140__J_113_1  IN_140  J_113_1  672.00  0.013  0.00  0.00  0.00  0.00