[TITLE]
;; Auto-generated SWMM model (pipeline build stage)

[OPTIONS]
FLOW_UNITS           CFS
INFILTRATION         HORTON
FLOW_ROUTING         DYNWAVE
START_DATE           01/01/2025
START_TIME           00:00:00
REPORT_START_DATE    01/01/2025
REPORT_START_TIME    00:00:00
END_DATE             01/01/2025
END_TIME             06:00:00
WET_STEP             00:05:00
DRY_STEP             01:00:00
ROUTING_STEP         00:00:30
ALLOW_PONDING        NO

[RAINGAGES]
;;Name  Format  Interval  SCF  Source
RG1    INTENSITY  0:05    1.0  TIMESERIES TS1

[TIMESERIES]
;;Name Date Time Value
TS1 01/01/2025 00:00 0.00
TS1 01/01/2025 00:30 0.25
TS1 01/01/2025 01:00 0.50
TS1 01/01/2025 01:30 0.25
TS1 01/01/2025 02:00 0.00

[JUNCTIONS]
;;Name  Elevation  MaxDepth  InitDepth  SurDepth  Aponded
J001  100.000  8.000  0.000  0.000  0.000
J002  99.800  8.000  0.000  0.000  0.000
J003  99.600  8.000  0.000  0.000  0.000
J004  99.400  8.000  0.000  0.000  0.000
J005  99.200  8.000  0.000  0.000  0.000
J006  99.000  8.000  0.000  0.000  0.000
J007  98.800  8.000  0.000  0.000  0.000
J008  98.600  8.000  0.000  0.000  0.000
J009  98.400  8.000  0.000  0.000  0.000
J011  98.200  8.000  0.000  0.000  0.000
J012  98.000  8.000  0.000  0.000  0.000
J013  97.800  8.000  0.000  0.000  0.000
J014  97.600  8.000  0.000  0.000  0.000
J015  97.400  8.000  0.000  0.000  0.000
J016  97.200  8.000  0.000  0.000  0.000
J017  97.000  8.000  0.000  0.000  0.000
J018  96.800  8.000  0.000  0.000  0.000
J019  96.600  8.000  0.000  0.000  0.000
J020  96.400  8.000  0.000  0.000  0.000
J021  96.200  8.000  0.000  0.000  0.000
J022  96.000  8.000  0.000  0.000  0.000
J023  95.800  8.000  0.000  0.000  0.000
J024  95.600  8.000  0.000  0.000  0.000
J025  95.400  8.000  0.000  0.000  0.000
J026  95.200  8.000  0.000  0.000  0.000
J027  95.000  8.000  0.000  0.000  0.000
J028  94.800  8.000  0.000  0.000  0.000
J029  94.600  8.000  0.000  0.000  0.000
J030  94.400  8.000  0.000  0.000  0.000
J031  94.200  8.000  0.000  0.000  0.000
J032  94.000  8.000  0.000  0.000  0.000
J033  93.800  8.000  0.000  0.000  0.000
J034  93.600  8.000  0.000  0.000  0.000
J035  93.400  8.000  0.000  0.000  0.000
J036  93.200  8.000  0.000  0.000  0.000
J037  93.000  8.000  0.000  0.000  0.000
J038  92.800  8.000  0.000  0.000  0.000
J039  92.600  8.000  0.000  0.000  0.000
J040  92.400  8.000  0.000  0.000  0.000
J041  92.200  8.000  0.000  0.000  0.000
J042  92.000  8.000  0.000  0.000  0.000
J043  91.800  8.000  0.000  0.000  0.000
J044  91.600  8.000  0.000  0.000  0.000
J045  91.400  8.000  0.000  0.000  0.000
J046  91.200  8.000  0.000  0.000  0.000
J047  91.000  8.000  0.000  0.000  0.000
J048  90.800  8.000  0.000  0.000  0.000
J049  90.600  8.000  0.000  0.000  0.000
J050  90.400  8.000  0.000  0.000  0.000
J051  90.200  8.000  0.000  0.000  0.000
J052  90.000  8.000  0.000  0.000  0.000
J053  89.800  8.000  0.000  0.000  0.000
J054  89.600  8.000  0.000  0.000  0.000
J055  89.400  8.000  0.000  0.000  0.000
J057  89.200  8.000  0.000  0.000  0.000
J061  89.000  8.000  0.000  0.000  0.000
J062  88.800  8.000  0.000  0.000  0.000
J063  88.600  8.000  0.000  0.000  0.000
J065  88.400  8.000  0.000  0.000  0.000
J068  88.200  8.000  0.000  0.000  0.000
J069  88.000  8.000  0.000  0.000  0.000
J070  87.800  8.000  0.000  0.000  0.000
J071  87.600  8.000  0.000  0.000  0.000
J072  87.400  8.000  0.000  0.000  0.000
J074  87.200  8.000  0.000  0.000  0.000
J075  87.000  8.000  0.000  0.000  0.000
J076  86.800  8.000  0.000  0.000  0.000
J077  86.600  8.000  0.000  0.000  0.000
J078  86.400  8.000  0.000  0.000  0.000
J079  86.200  8.000  0.000  0.000  0.000
J080  86.000  8.000  0.000  0.000  0.000
J081  85.800  8.000  0.000  0.000  0.000
J082  85.600  8.000  0.000  0.000  0.000
J083  85.400  8.000  0.000  0.000  0.000
J084  85.200  8.000  0.000  0.000  0.000
J085  85.000  8.000  0.000  0.000  0.000
J086  84.800  8.000  0.000  0.000  0.000
J087  84.600  8.000  0.000  0.000  0.000
J088  84.400  8.000  0.000  0.000  0.000
J089  84.200  8.000  0.000  0.000  0.000
J090  84.000  8.000  0.000  0.000  0.000
J091  83.800  8.000  0.000  0.000  0.000
J092  83.600  8.000  0.000  0.000  0.000
J093  83.400  8.000  0.000  0.000  0.000
J094  83.200  8.000  0.000  0.000  0.000
J095  83.000  8.000  0.000  0.000  0.000
J096  82.800  8.000  0.000  0.000  0.000
J097  82.600  8.000  0.000  0.000  0.000
J098  82.400  8.000  0.000  0.000  0.000
J099  82.200  8.000  0.000  0.000  0.000
J100  82.000  8.000  0.000  0.000  0.000
J101  81.800  8.000  0.000  0.000  0.000
J102  81.600  8.000  0.000  0.000  0.000
J103  81.400  8.000  0.000  0.000  0.000
J104  81.200  8.000  0.000  0.000  0.000
J105  81.000  8.000  0.000  0.000  0.000
J106  80.800  8.000  0.000  0.000  0.000
J107  80.600  8.000  0.000  0.000  0.000
J108  80.400  8.000  0.000  0.000  0.000
J109  80.200  8.000  0.000  0.000  0.000
J110  80.000  8.000  0.000  0.000  0.000
J111  79.800  8.000  0.000  0.000  0.000
J112  79.600  8.000  0.000  0.000  0.000
J113  79.400  8.000  0.000  0.000  0.000
J114  79.200  8.000  0.000  0.000  0.000
J115  79.000  8.000  0.000  0.000  0.000
J116  78.800  8.000  0.000  0.000  0.000
J117  78.600  8.000  0.000  0.000  0.000
J118  78.400  8.000  0.000  0.000  0.000
J119  78.200  8.000  0.000  0.000  0.000
J120  78.000  8.000  0.000  0.000  0.000
J121  77.800  8.000  0.000  0.000  0.000
J122  77.600  8.000  0.000  0.000  0.000
J123  77.400  8.000  0.000  0.000  0.000
J124  77.200  8.000  0.000  0.000  0.000
J125  77.000  8.000  0.000  0.000  0.000
J126  76.800  8.000  0.000  0.000  0.000
J127  76.600  8.000  0.000  0.000  0.000
J128  76.400  8.000  0.000  0.000  0.000
J129  76.200  8.000  0.000  0.000  0.000
J130  76.000  8.000  0.000  0.000  0.000
J131  75.800  8.000  0.000  0.000  0.000
J132  75.600  8.000  0.000  0.000  0.000
J133  75.400  8.000  0.000  0.000  0.000
J134  75.200  8.000  0.000  0.000  0.000
J135  75.000  8.000  0.000  0.000  0.000
J136  74.800  8.000  0.000  0.000  0.000
J137  74.600  8.000  0.000  0.000  0.000
J138  74.400  8.000  0.000  0.000  0.000
J139  74.200  8.000  0.000  0.000  0.000
J140  74.000  8.000  0.000  0.000  0.000
J141  73.800  8.000  0.000  0.000  0.000
J142  73.600  8.000  0.000  0.000  0.000
J143  73.400  8.000  0.000  0.000  0.000
J144  73.200  8.000  0.000  0.000  0.000
J145  73.000  8.000  0.000  0.000  0.000
J146  72.800  8.000  0.000  0.000  0.000
J147  72.600  8.000  0.000  0.000  0.000
J148  72.400  8.000  0.000  0.000  0.000
J149  72.200  8.000  0.000  0.000  0.000
J150  72.000  8.000  0.000  0.000  0.000
J151  71.800  8.000  0.000  0.000  0.000
J152  71.600  8.000  0.000  0.000  0.000
J153  71.400  8.000  0.000  0.000  0.000
J154  71.200  8.000  0.000  0.000  0.000
J155  71.000  8.000  0.000  0.000  0.000
J156  70.800  8.000  0.000  0.000  0.000
J157  70.600  8.000  0.000  0.000  0.000
J158  70.400  8.000  0.000  0.000  0.000
J159  70.200  8.000  0.000  0.000  0.000
J160  70.000  8.000  0.000  0.000  0.000
J161  69.800  8.000  0.000  0.000  0.000
J162  69.600  8.000  0.000  0.000  0.000
J165  69.400  8.000  0.000  0.000  0.000
J166  69.200  8.000  0.000  0.000  0.000
J167  69.000  8.000  0.000  0.000  0.000
J168  68.800  8.000  0.000  0.000  0.000
J169  68.600  8.000  0.000  0.000  0.000
J170  68.400  8.000  0.000  0.000  0.000
J171  68.200  8.000  0.000  0.000  0.000
J172  68.000  8.000  0.000  0.000  0.000
J173  67.800  8.000  0.000  0.000  0.000
J174  67.600  8.000  0.000  0.000  0.000
J176  67.400  8.000  0.000  0.000  0.000
J178  67.200  8.000  0.000  0.000  0.000
J179  67.000  8.000  0.000  0.000  0.000
J180  66.800  8.000  0.000  0.000  0.000
J181  66.600  8.000  0.000  0.000  0.000
J182  66.400  8.000  0.000  0.000  0.000
J183  66.200  8.000  0.000  0.000  0.000
J184  66.000  8.000  0.000  0.000  0.000
J185  65.800  8.000  0.000  0.000  0.000
J186  65.600  8.000  0.000  0.000  0.000
J187  65.400  8.000  0.000  0.000  0.000

[OUTFALLS]
;;Name  Elevation  Type  Stage Data  Gated  Route To
OUT1  95.000  FREE  

[CONDUITS]
;;Name  FromNode  ToNode  Length  Roughness  InOffset  OutOffset  InitFlow  MaxFlow
C001  J077  OUT1  236.00  0.013  0.00  0.00  0.00  0.00
C002  J075  J077  408.00  0.013  0.00  0.00  0.00  0.00
C003  J074  J075  1008.00  0.013  0.00  0.00  0.00  0.00
C004  J072  J074  460.00  0.013  0.00  0.00  0.00  0.00
C005  J071  J072  27.00  0.013  0.00  0.00  0.00  0.00
C006  J071  J071  317.00  0.013  0.00  0.00  0.00  0.00
C007  J071  J071  960.00  0.013  0.00  0.00  0.00  0.00
C008  J069  J071  1195.00  0.013  0.00  0.00  0.00  0.00
C009  J065  J069  209.00  0.013  0.00  0.00  0.00  0.00
C010  J065  J065  153.00  0.013  0.00  0.00  0.00  0.00
C011  J065  J065  1237.00  0.013  0.00  0.00  0.00  0.00
C012  J063  J065  330.00  0.013  0.00  0.00  0.00  0.00
C013  J062  J063  619.00  0.013  0.00  0.00  0.00  0.00
C014  J057  J062  420.00  0.013  0.00  0.00  0.00  0.00
C015  J054  J057  45.00  0.013  0.00  0.00  0.00  0.00
C016  J053  J054  496.00  0.013  0.00  0.00  0.00  0.00
C017  J051  J053  538.00  0.013  0.00  0.00  0.00  0.00
C018  J042  J051  770.00  0.013  0.00  0.00  0.00  0.00
C019  J039  J042  106.00  0.013  0.00  0.00  0.00  0.00
C020  J037  J039  156.00  0.013  0.00  0.00  0.00  0.00
C021  J035  J037  439.00  0.013  0.00  0.00  0.00  0.00
C022  J031  J035  131.00  0.013  0.00  0.00  0.00  0.00
C023  J029  J031  512.00  0.013  0.00  0.00  0.00  0.00
C024  J015  J029  630.00  0.013  0.00  0.00  0.00  0.00
C025  J011  J015  50.00  0.013  0.00  0.00  0.00  0.00
C026  J009  J011  683.00  0.013  0.00  0.00  0.00  0.00
C027  J007  J009  30.00  0.013  0.00  0.00  0.00  0.00
C028  J006  J007  32.00  0.013  0.00  0.00  0.00  0.00
C029  J006  J006  606.00  0.013  0.00  0.00  0.00  0.00
C030  J003  J006  826.00  0.013  0.00  0.00  0.00  0.00
C031  J002  J003  943.00  0.013  0.00  0.00  0.00  0.00
C032  J001  J002  176.00  0.013  0.00  0.00  0.00  0.00
C033  J005  J006  519.00  0.013  0.00  0.00  0.00  0.00
C034  J004  J005  214.00  0.013  0.00  0.00  0.00  0.00
C035  J007  J007  300.00  0.013  0.00  0.00  0.00  0.00
C036  J008  J009  291.00  0.013  0.00  0.00  0.00  0.00
C037  J013  J015  264.00  0.013  0.00  0.00  0.00  0.00
C038  J012  J013  356.00  0.013  0.00  0.00  0.00  0.00
C039  J014  J015  76.00  0.013  0.00  0.00  0.00  0.00
C040  J026  J029  189.00  0.013  0.00  0.00  0.00  0.00
C041  J025  J026  227.00  0.013  0.00  0.00  0.00  0.00
C042  J023  J025  114.00  0.013  0.00  0.00  0.00  0.00
C043  J021  J023  251.00  0.013  0.00  0.00  0.00  0.00
C044  J020  J021  658.00  0.013  0.00  0.00  0.00  0.00
C045  J018  J020  230.00  0.013  0.00  0.00  0.00  0.00
C046  J016  J018  649.00  0.013  0.00  0.00  0.00  0.00
C047  J017  J018  183.00  0.013  0.00  0.00  0.00  0.00
C048  J019  J020  72.00  0.013  0.00  0.00  0.00  0.00
C049  J022  J023  146.00  0.013  0.00  0.00  0.00  0.00
C050  J024  J025  73.00  0.013  0.00  0.00  0.00  0.00
C051  J028  J029  113.00  0.013  0.00  0.00  0.00  0.00
C052  J027  J028  350.00  0.013  0.00  0.00  0.00  0.00
C053  J027  J027  176.00  0.013  0.00  0.00  0.00  0.00
C054  J030  J031  109.00  0.013  0.00  0.00  0.00  0.00
C055  J034  J035  304.00  0.013  0.00  0.00  0.00  0.00
C056  J032  J034  278.00  0.013  0.00  0.00  0.00  0.00
C057  J033  J034  96.00  0.013  0.00  0.00  0.00  0.00
C058  J036  J037  40.00  0.013  0.00  0.00  0.00  0.00
C059  J038  J039  156.00  0.013  0.00  0.00  0.00  0.00
C060  J041  J042  107.00  0.013  0.00  0.00  0.00  0.00
C061  J040  J041  531.00  0.013  0.00  0.00  0.00  0.00
C062  J050  J051  470.00  0.013  0.00  0.00  0.00  0.00
C063  J049  J051  38.00  0.013  0.00  0.00  0.00  0.00
C064  J048  J049  540.00  0.013  0.00  0.00  0.00  0.00
C065  J046  J048  750.00  0.013  0.00  0.00  0.00  0.00
C066  J045  J046  50.00  0.013  0.00  0.00  0.00  0.00
C067  J044  J045  455.00  0.013  0.00  0.00  0.00  0.00
C068  J043  J044  476.00  0.013  0.00  0.00  0.00  0.00
C069  J047  J048  14.00  0.013  0.00  0.00  0.00  0.00
C070  J050  J051  470.00  0.013  0.00  0.00  0.00  0.00
C071  J052  J053  134.00  0.013  0.00  0.00  0.00  0.00
C072  J055  J057  686.00  0.013  0.00  0.00  0.00  0.00
C073  J061  J062  216.00  0.013  0.00  0.00  0.00  0.00
C074  J065  J065  369.00  0.013  0.00  0.00  0.00  0.00
C075  J065  J065  362.00  0.013  0.00  0.00  0.00  0.00
C076  J068  J069  29.00  0.013  0.00  0.00  0.00  0.00
C077  J068  J068  391.00  0.013  0.00  0.00  0.00  0.00
C078  J068  J069  87.00  0.013  0.00  0.00  0.00  0.00
C079  J070  J071  844.00  0.013  0.00  0.00  0.00  0.00
C080  J070  J070  125.00  0.013  0.00  0.00  0.00  0.00
C081  J070  J070  418.00  0.013  0.00  0.00  0.00  0.00
C082  J070  J070  49.00  0.013  0.00  0.00  0.00  0.00
C083  J070  J070  194.00  0.013  0.00  0.00  0.00  0.00
C084  J071  J071  152.00  0.013  0.00  0.00  0.00  0.00
C085  J071  J071  40.00  0.013  0.00  0.00  0.00  0.00
C086  J071  J071  630.00  0.013  0.00  0.00  0.00  0.00
C087  J071  J071  294.00  0.013  0.00  0.00  0.00  0.00
C088  J071  J071  229.00  0.013  0.00  0.00  0.00  0.00
C089  J071  J071  36.00  0.013  0.00  0.00  0.00  0.00
C090  J071  J071  501.00  0.013  0.00  0.00  0.00  0.00
C091  J076  J077  155.00  0.013  0.00  0.00  0.00  0.00
C092  J134  OUT1  46.00  0.013  0.00  0.00  0.00  0.00
C093  J133  J134  34.00  0.013  0.00  0.00  0.00  0.00
C094  J132  J133  437.00  0.013  0.00  0.00  0.00  0.00
C095  J131  J132  541.00  0.013  0.00  0.00  0.00  0.00
C096  J130  J131  294.00  0.013  0.00  0.00  0.00  0.00
C097  J121  J130  93.00  0.013  0.00  0.00  0.00  0.00
C098  J119  J121  479.00  0.013  0.00  0.00  0.00  0.00
C099  J117  J119  813.00  0.013  0.00  0.00  0.00  0.00
C100  J111  J117  108.00  0.013  0.00  0.00  0.00  0.00
C101  J110  J111  415.00  0.013  0.00  0.00  0.00  0.00
C102  J110  J110  115.00  0.013  0.00  0.00  0.00  0.00
C103  J110  J110  73.00  0.013  0.00  0.00  0.00  0.00
C104  J108  J110  147.00  0.013  0.00  0.00  0.00  0.00
C105  J107  J108  551.00  0.013  0.00  0.00  0.00  0.00
C106  J101  J107  1716.00  0.013  0.00  0.00  0.00  0.00
C107  J101  J101  626.00  0.013  0.00  0.00  0.00  0.00
C108  J104  J107  482.00  0.013  0.00  0.00  0.00  0.00
C109  J103  J104  113.00  0.013  0.00  0.00  0.00  0.00
C110  J103  J103  97.00  0.013  0.00  0.00  0.00  0.00
C111  J102  J103  315.00  0.013  0.00  0.00  0.00  0.00
C112  J102  J102  567.00  0.013  0.00  0.00  0.00  0.00
C113  J102  J102  38.00  0.013  0.00  0.00  0.00  0.00
C114  J102  J102  89.00  0.013  0.00  0.00  0.00  0.00
C115  J103  J103  111.00  0.013  0.00  0.00  0.00  0.00
C116  J103  J103  935.00  0.013  0.00  0.00  0.00  0.00
C117  J103  J103  73.00  0.013  0.00  0.00  0.00  0.00
C118  J103  J104  196.00  0.013  0.00  0.00  0.00  0.00
C119  J106  J107  552.00  0.013  0.00  0.00  0.00  0.00
C120  J105  J106  777.00  0.013  0.00  0.00  0.00  0.00
C121  J105  J105  467.00  0.013  0.00  0.00  0.00  0.00
C122  J105  J105  51.00  0.013  0.00  0.00  0.00  0.00
C123  J105  J105  48.00  0.013  0.00  0.00  0.00  0.00
C124  J105  J105  39.00  0.013  0.00  0.00  0.00  0.00
C125  J108  J108  13.00  0.013  0.00  0.00  0.00  0.00
C126  J108  J108  26.00  0.013  0.00  0.00  0.00  0.00
C127  J108  J108  36.00  0.013  0.00  0.00  0.00  0.00
C128  J108  J108  39.00  0.013  0.00  0.00  0.00  0.00
C129  J109  J110  554.00  0.013  0.00  0.00  0.00  0.00
C130  J109  J109  259.00  0.013  0.00  0.00  0.00  0.00
C131  J109  J109  369.00  0.013  0.00  0.00  0.00  0.00
C132  J110  J110  659.00  0.013  0.00  0.00  0.00  0.00
C133  J115  J117  1329.00  0.013  0.00  0.00  0.00  0.00
C134  J113  J115  27.00  0.013  0.00  0.00  0.00  0.00
C135  J113  J113  133.00  0.013  0.00  0.00  0.00  0.00
C136  J113  J113  18.00  0.013  0.00  0.00  0.00  0.00
C137  J112  J113  572.00  0.013  0.00  0.00  0.00  0.00
C138  J114  J115  71.00  0.013  0.00  0.00  0.00  0.00
C139  J114  J114  120.00  0.013  0.00  0.00  0.00  0.00
C140  J114  J115  241.00  0.013  0.00  0.00  0.00  0.00
C141  J116  J117  890.00  0.013  0.00  0.00  0.00  0.00
C142  J118  J119  188.00  0.013  0.00  0.00  0.00  0.00
C143  J120  J121  178.00  0.013  0.00  0.00  0.00  0.00
C144  J129  J130  284.00  0.013  0.00  0.00  0.00  0.00
C145  J128  J129  629.00  0.013  0.00  0.00  0.00  0.00
C146  J127  J128  700.00  0.013  0.00  0.00  0.00  0.00
C147  J124  J127  662.00  0.013  0.00  0.00  0.00  0.00
C148  J123  J124  394.00  0.013  0.00  0.00  0.00  0.00
C149  J122  J123  26.00  0.013  0.00  0.00  0.00  0.00
C150  J126  J127  270.00  0.013  0.00  0.00  0.00  0.00
C151  J125  J126  105.00  0.013  0.00  0.00  0.00  0.00
C152  J100  J132  376.00  0.013  0.00  0.00  0.00  0.00
C153  J098  J100  656.00  0.013  0.00  0.00  0.00  0.00
C154  J096  J098  338.00  0.013  0.00  0.00  0.00  0.00
C155  J095  J096  554.00  0.013  0.00  0.00  0.00  0.00
C156  J095  J095  944.00  0.013  0.00  0.00  0.00  0.00
C157  J089  J095  296.00  0.013  0.00  0.00  0.00  0.00
C158  J088  J089  650.00  0.013  0.00  0.00  0.00  0.00
C159  J083  J088  961.00  0.013  0.00  0.00  0.00  0.00
C160  J083  J083  46.00  0.013  0.00  0.00  0.00  0.00
C161  J082  J083  509.00  0.013  0.00  0.00  0.00  0.00
C162  J081  J082  401.00  0.013  0.00  0.00  0.00  0.00
C163  J081  J081  79.00  0.013  0.00  0.00  0.00  0.00
C164  J080  J081  802.00  0.013  0.00  0.00  0.00  0.00
C165  J078  J080  293.00  0.013  0.00  0.00  0.00  0.00
C166  J078  J078  37.00  0.013  0.00  0.00  0.00  0.00
C167  J097  J098  178.00  0.013  0.00  0.00  0.00  0.00
C168  J097  J097  240.00  0.013  0.00  0.00  0.00  0.00
C169  J096  J097  436.00  0.013  0.00  0.00  0.00  0.00
C170  J079  J080  157.00  0.013  0.00  0.00  0.00  0.00
C171  J088  J088  176.00  0.013  0.00  0.00  0.00  0.00
C172  J087  J088  970.00  0.013  0.00  0.00  0.00  0.00
C173  J085  J087  1292.00  0.013  0.00  0.00  0.00  0.00
C174  J084  J085  215.00  0.013  0.00  0.00  0.00  0.00
C175  J086  J087  575.00  0.013  0.00  0.00  0.00  0.00
C176  J086  J086  575.00  0.013  0.00  0.00  0.00  0.00
C177  J099  J100  240.00  0.013  0.00  0.00  0.00  0.00
C178  J097  J098  240.00  0.013  0.00  0.00  0.00  0.00
C179  J095  J095  145.00  0.013  0.00  0.00  0.00  0.00
C180  J095  J095  132.00  0.013  0.00  0.00  0.00  0.00
C181  J095  J095  293.00  0.013  0.00  0.00  0.00  0.00
C182  J095  J095  380.00  0.013  0.00  0.00  0.00  0.00
C183  J094  J095  366.00  0.013  0.00  0.00  0.00  0.00
C184  J094  J094  330.00  0.013  0.00  0.00  0.00  0.00
C185  J094  J094  18.00  0.013  0.00  0.00  0.00  0.00
C186  J093  J094  41.00  0.013  0.00  0.00  0.00  0.00
C187  J092  J093  984.00  0.013  0.00  0.00  0.00  0.00
C188  J090  J092  469.00  0.013  0.00  0.00  0.00  0.00
C189  J090  J090  71.00  0.013  0.00  0.00  0.00  0.00
C190  J091  J092  662.00  0.013  0.00  0.00  0.00  0.00
C191  J135  OUT1  474.00  0.013  0.00  0.00  0.00  0.00
C192  J156  OUT1  304.00  0.013  0.00  0.00  0.00  0.00
C193  J155  J156  1084.00  0.013  0.00  0.00  0.00  0.00
C194  J154  J155  63.00  0.013  0.00  0.00  0.00  0.00
C195  J153  J154  279.00  0.013  0.00  0.00  0.00  0.00
C196  J145  J153  820.00  0.013  0.00  0.00  0.00  0.00
C197  J143  J145  329.00  0.013  0.00  0.00  0.00  0.00
C198  J141  J143  721.00  0.013  0.00  0.00  0.00  0.00
C199  J138  J141  812.00  0.013  0.00  0.00  0.00  0.00
C200  J137  J138  219.00  0.013  0.00  0.00  0.00  0.00
C201  J136  J137  353.00  0.013  0.00  0.00  0.00  0.00
C202  J136  J136  17.00  0.013  0.00  0.00  0.00  0.00
C203  J136  J136  526.00  0.013  0.00  0.00  0.00  0.00
C204  J136  J136  23.00  0.013  0.00  0.00  0.00  0.00
C205  J136  J136  21.00  0.013  0.00  0.00  0.00  0.00
C206  J136  J136  158.00  0.013  0.00  0.00  0.00  0.00
C207  J140  J141  213.00  0.013  0.00  0.00  0.00  0.00
C208  J139  J140  63.00  0.013  0.00  0.00  0.00  0.00
C209  J142  J143  255.00  0.013  0.00  0.00  0.00  0.00
C210  J144  J145  128.00  0.013  0.00  0.00  0.00  0.00
C211  J153  J153  509.00  0.013  0.00  0.00  0.00  0.00
C212  J152  J153  328.00  0.013  0.00  0.00  0.00  0.00
C213  J151  J153  35.00  0.013  0.00  0.00  0.00  0.00
C214  J150  J151  132.00  0.013  0.00  0.00  0.00  0.00
C215  J149  J150  551.00  0.013  0.00  0.00  0.00  0.00
C216  J147  J149  221.00  0.013  0.00  0.00  0.00  0.00
C217  J146  J147  210.00  0.013  0.00  0.00  0.00  0.00
C218  J148  J149  359.00  0.013  0.00  0.00  0.00  0.00
C219  J184  OUT1  572.00  0.013  0.00  0.00  0.00  0.00
C220  J182  J184  344.00  0.013  0.00  0.00  0.00  0.00
C221  J180  J182  575.00  0.013  0.00  0.00  0.00  0.00
C222  J178  J180  93.00  0.013  0.00  0.00  0.00  0.00
C223  J176  J178  1260.00  0.013  0.00  0.00  0.00  0.00
C224  J173  J176  1310.00  0.013  0.00  0.00  0.00  0.00
C225  J169  J173  1463.00  0.013  0.00  0.00  0.00  0.00
C226  J168  J169  462.00  0.013  0.00  0.00  0.00  0.00
C227  J167  J168  883.00  0.013  0.00  0.00  0.00  0.00
C228  J166  J168  249.00  0.013  0.00  0.00  0.00  0.00
C229  J172  J173  670.00  0.013  0.00  0.00  0.00  0.00
C230  J171  J172  405.00  0.013  0.00  0.00  0.00  0.00
C231  J170  J171  450.00  0.013  0.00  0.00  0.00  0.00
C232  J174  J176  490.00  0.013  0.00  0.00  0.00  0.00
C233  J159  J174  711.00  0.013  0.00  0.00  0.00  0.00
C234  J182  OUT1  490.00  0.013  0.00  0.00  0.00  0.00
C235  J180  J182  583.00  0.013  0.00  0.00  0.00  0.00
C236  J165  J180  77.00  0.013  0.00  0.00  0.00  0.00
C237  J162  J165  396.00  0.013  0.00  0.00  0.00  0.00
C238  J161  J162  434.00  0.013  0.00  0.00  0.00  0.00
C239  J160  J161  937.00  0.013  0.00  0.00  0.00  0.00
C240  J159  J160  207.00  0.013  0.00  0.00  0.00  0.00
C241  J159  J159  665.00  0.013  0.00  0.00  0.00  0.00
C242  J158  J159  577.00  0.013  0.00  0.00  0.00  0.00
C243  J157  J158  99.00  0.013  0.00  0.00  0.00  0.00
C244  J183  J184  180.00  0.013  0.00  0.00  0.00  0.00
C245  J181  J182  1162.00  0.013  0.00  0.00  0.00  0.00
C246  J179  J180  245.00  0.013  0.00  0.00  0.00  0.00
C247  J185  OUT1  200.00  0.013  0.00  0.00  0.00  0.00
C248  J186  OUT1  133.00  0.013  0.00  0.00  0.00  0.00
C249  J187  OUT1  185.00  0.013  0.00  0.00  0.00  0.00

[XSECTIONS]
;;Link  Shape  Geom1  Geom2  Geom3  Geom4  Barrels
C001  CIRCULAR  4.500  0.000  0.000  0.000  1
C002  CIRCULAR  4.500  0.000  0.000  0.000  1
C003  CIRCULAR  4.500  0.000  0.000  0.000  1
C004  CIRCULAR  4.500  0.000  0.000  0.000  1
C005  CIRCULAR  4.500  0.000  0.000  0.000  1
C006  CIRCULAR  4.500  0.000  0.000  0.000  1
C007  CIRCULAR  4.500  0.000  0.000  0.000  1
C008  CIRCULAR  4.500  0.000  0.000  0.000  1
C009  CIRCULAR  4.500  0.000  0.000  0.000  1
C010  CIRCULAR  4.500  0.000  0.000  0.000  1
C011  CIRCULAR  4.500  0.000  0.000  0.000  1
C012  CIRCULAR  4.500  0.000  0.000  0.000  1
C013  CIRCULAR  4.500  0.000  0.000  0.000  1
C014  CIRCULAR  4.500  0.000  0.000  0.000  1
C015  CIRCULAR  4.500  0.000  0.000  0.000  1
C016  CIRCULAR  4.000  0.000  0.000  0.000  1
C017  CIRCULAR  4.000  0.000  0.000  0.000  1
C018  CIRCULAR  3.500  0.000  0.000  0.000  1
C019  CIRCULAR  3.000  0.000  0.000  0.000  1
C020  CIRCULAR  3.000  0.000  0.000  0.000  1
C021  CIRCULAR  3.000  0.000  0.000  0.000  1
C022  CIRCULAR  3.000  0.000  0.000  0.000  1
C023  CIRCULAR  3.000  0.000  0.000  0.000  1
C024  CIRCULAR  3.000  0.000  0.000  0.000  1
C025  CIRCULAR  2.500  0.000  0.000  0.000  1
C026  CIRCULAR  2.500  0.000  0.000  0.000  1
C027  CIRCULAR  2.500  0.000  0.000  0.000  1
C028  CIRCULAR  2.500  0.000  0.000  0.000  1
C029  CIRCULAR  2.500  0.000  0.000  0.000  1
C030  CIRCULAR  2.000  0.000  0.000  0.000  1
C031  CIRCULAR  2.000  0.000  0.000  0.000  1
C032  CIRCULAR  2.000  0.000  0.000  0.000  1
C033  CIRCULAR  2.000  0.000  0.000  0.000  1
C034  CIRCULAR  1.500  0.000  0.000  0.000  1
C035  CIRCULAR  1.500  0.000  0.000  0.000  1
C036  CIRCULAR  1.500  0.000  0.000  0.000  1
C037  CIRCULAR  1.500  0.000  0.000  0.000  1
C038  CIRCULAR  1.500  0.000  0.000  0.000  1
C039  CIRCULAR  1.500  0.000  0.000  0.000  1
C040  CIRCULAR  2.500  0.000  0.000  0.000  1
C041  CIRCULAR  2.500  0.000  0.000  0.000  1
C042  CIRCULAR  2.500  0.000  0.000  0.000  1
C043  CIRCULAR  2.500  0.000  0.000  0.000  1
C044  CIRCULAR  2.000  0.000  0.000  0.000  1
C045  CIRCULAR  2.000  0.000  0.000  0.000  1
C046  CIRCULAR  1.500  0.000  0.000  0.000  1
C047  CIRCULAR  1.500  0.000  0.000  0.000  1
C048  CIRCULAR  1.500  0.000  0.000  0.000  1
C049  CIRCULAR  2.000  0.000  0.000  0.000  1
C050  CIRCULAR  2.000  0.000  0.000  0.000  1
C051  CIRCULAR  2.000  0.000  0.000  0.000  1
C052  CIRCULAR  2.000  0.000  0.000  0.000  1
C053  CIRCULAR  2.000  0.000  0.000  0.000  1
C054  CIRCULAR  2.000  0.000  0.000  0.000  1
C055  CIRCULAR  1.500  0.000  0.000  0.000  1
C056  CIRCULAR  1.500  0.000  0.000  0.000  1
C057  CIRCULAR  1.500  0.000  0.000  0.000  1
C058  CIRCULAR  1.500  0.000  0.000  0.000  1
C059  CIRCULAR  1.500  0.000  0.000  0.000  1
C060  CIRCULAR  1.500  0.000  0.000  0.000  1
C061  CIRCULAR  1.500  0.000  0.000  0.000  1
C062  CIRCULAR  2.000  0.000  0.000  0.000  1
C063  CIRCULAR  2.000  0.000  0.000  0.000  1
C064  CIRCULAR  2.000  0.000  0.000  0.000  1
C065  CIRCULAR  1.500  0.000  0.000  0.000  1
C066  CIRCULAR  1.500  0.000  0.000  0.000  1
C067  CIRCULAR  1.500  0.000  0.000  0.000  1
C068  CIRCULAR  1.500  0.000  0.000  0.000  1
C069  CIRCULAR  2.000  0.000  0.000  0.000  1
C070  CIRCULAR  2.000  0.000  0.000  0.000  1
C071  CIRCULAR  2.000  0.000  0.000  0.000  1
C072  CIRCULAR  1.500  0.000  0.000  0.000  1
C073  CIRCULAR  2.500  0.000  0.000  0.000  1
C074  CIRCULAR  1.500  0.000  0.000  0.000  1
C075  CIRCULAR  1.500  0.000  0.000  0.000  1
C076  CIRCULAR  2.500  0.000  0.000  0.000  1
C077  CIRCULAR  1.500  0.000  0.000  0.000  1
C078  CIRCULAR  1.500  0.000  0.000  0.000  1
C079  CIRCULAR  2.500  0.000  0.000  0.000  1
C080  CIRCULAR  1.500  0.000  0.000  0.000  1
C081  CIRCULAR  1.500  0.000  0.000  0.000  1
C082  CIRCULAR  1.500  0.000  0.000  0.000  1
C083  CIRCULAR  1.500  0.000  0.000  0.000  1
C084  CIRCULAR  1.500  0.000  0.000  0.000  1
C085  CIRCULAR  1.500  0.000  0.000  0.000  1
C086  CIRCULAR  1.500  0.000  0.000  0.000  1
C087  CIRCULAR  1.500  0.000  0.000  0.000  1
C088  CIRCULAR  1.500  0.000  0.000  0.000  1
C089  CIRCULAR  1.500  0.000  0.000  0.000  1
C090  CIRCULAR  1.500  0.000  0.000  0.000  1
C091  CIRCULAR  1.250  0.000  0.000  0.000  1
C092  CIRCULAR  5.500  0.000  0.000  0.000  1
C093  CIRCULAR  5.500  0.000  0.000  0.000  1
C094  CIRCULAR  5.000  0.000  0.000  0.000  1
C095  CIRCULAR  5.000  0.000  0.000  0.000  1
C096  CIRCULAR  4.500  0.000  0.000  0.000  1
C097  CIRCULAR  4.500  0.000  0.000  0.000  1
C098  CIRCULAR  4.000  0.000  0.000  0.000  1
C099  CIRCULAR  4.000  0.000  0.000  0.000  1
C100  CIRCULAR  4.000  0.000  0.000  0.000  1
C101  CIRCULAR  4.000  0.000  0.000  0.000  1
C102  CIRCULAR  4.000  0.000  0.000  0.000  1
C103  CIRCULAR  4.000  0.000  0.000  0.000  1
C104  CIRCULAR  4.000  0.000  0.000  0.000  1
C105  CIRCULAR  4.000  0.000  0.000  0.000  1
C106  CIRCULAR  2.000  0.000  0.000  0.000  1
C107  CIRCULAR  1.500  0.000  0.000  0.000  1
C108  CIRCULAR  3.000  0.000  0.000  0.000  1
C109  CIRCULAR  3.000  0.000  0.000  0.000  1
C110  CIRCULAR  2.500  0.000  0.000  0.000  1
C111  CIRCULAR  2.000  0.000  0.000  0.000  1
C112  CIRCULAR  2.000  0.000  0.000  0.000  1
C113  CIRCULAR  2.000  0.000  0.000  0.000  1
C114  CIRCULAR  1.500  0.000  0.000  0.000  1
C115  CIRCULAR  2.000  0.000  0.000  0.000  1
C116  CIRCULAR  2.000  0.000  0.000  0.000  1
C117  CIRCULAR  1.500  0.000  0.000  0.000  1
C118  CIRCULAR  1.500  0.000  0.000  0.000  1
C119  CIRCULAR  2.500  0.000  0.000  0.000  1
C120  CIRCULAR  2.500  0.000  0.000  0.000  1
C121  CIRCULAR  1.500  0.000  0.000  0.000  1
C122  CIRCULAR  1.500  0.000  0.000  0.000  1
C123  CIRCULAR  1.500  0.000  0.000  0.000  1
C124  CIRCULAR  2.000  0.000  0.000  0.000  1
C125  CIRCULAR  1.500  0.000  0.000  0.000  1
C126  CIRCULAR  1.500  0.000  0.000  0.000  1
C127  CIRCULAR  1.500  0.000  0.000  0.000  1
C128  CIRCULAR  1.500  0.000  0.000  0.000  1
C129  CIRCULAR  2.000  0.000  0.000  0.000  1
C130  CIRCULAR  1.500  0.000  0.000  0.000  1
C131  CIRCULAR  1.500  0.000  0.000  0.000  1
C132  CIRCULAR  1.500  0.000  0.000  0.000  1
C133  CIRCULAR  2.500  0.000  0.000  0.000  1
C134  CIRCULAR  2.000  0.000  0.000  0.000  1
C135  CIRCULAR  2.000  0.000  0.000  0.000  1
C136  CIRCULAR  2.000  0.000  0.000  0.000  1
C137  CIRCULAR  1.500  0.000  0.000  0.000  1
C138  CIRCULAR  2.000  0.000  0.000  0.000  1
C139  CIRCULAR  1.500  0.000  0.000  0.000  1
C140  CIRCULAR  1.500  0.000  0.000  0.000  1
C141  CIRCULAR  1.500  0.000  0.000  0.000  1
C142  CIRCULAR  1.500  0.000  0.000  0.000  1
C143  CIRCULAR  2.000  0.000  0.000  0.000  1
C144  CIRCULAR  3.000  0.000  0.000  0.000  1
C145  CIRCULAR  2.500  0.000  0.000  0.000  1
C146  CIRCULAR  2.500  0.000  0.000  0.000  1
C147  CIRCULAR  2.000  0.000  0.000  0.000  1
C148  CIRCULAR  2.000  0.000  0.000  0.000  1
C149  CIRCULAR  2.000  0.000  0.000  0.000  1
C150  CIRCULAR  2.000  0.000  0.000  0.000  1
C151  CIRCULAR  1.500  0.000  0.000  0.000  1
C152  CIRCULAR  4.500  0.000  0.000  0.000  1
C153  CIRCULAR  4.000  0.000  0.000  0.000  1
C154  CIRCULAR  4.000  0.000  0.000  0.000  1
C155  CIRCULAR  4.000  0.000  0.000  0.000  1
C156  CIRCULAR  3.500  0.000  0.000  0.000  1
C157  CIRCULAR  3.000  0.000  0.000  0.000  1
C158  CIRCULAR  3.000  0.000  0.000  0.000  1
C159  CIRCULAR  2.500  0.000  0.000  0.000  1
C160  CIRCULAR  2.500  0.000  0.000  0.000  1
C161  CIRCULAR  2.500  0.000  0.000  0.000  1
C162  CIRCULAR  2.500  0.000  0.000  0.000  1
C163  CIRCULAR  2.000  0.000  0.000  0.000  1
C164  CIRCULAR  2.000  0.000  0.000  0.000  1
C165  CIRCULAR  2.000  0.000  0.000  0.000  1
C166  CIRCULAR  1.500  0.000  0.000  0.000  1
C167  CIRCULAR  1.500  0.000  0.000  0.000  1
C168  CIRCULAR  1.500  0.000  0.000  0.000  1
C169  CIRCULAR  1.500  0.000  0.000  0.000  1
C170  CIRCULAR  1.500  0.000  0.000  0.000  1
C171  CIRCULAR  2.500  0.000  0.000  0.000  1
C172  CIRCULAR  2.000  0.000  0.000  0.000  1