[TITLE]
;; Inlet-known-flow hydraulic routing baseline

[OPTIONS]
FLOW_UNITS           CFS
INFILTRATION         HORTON
FLOW_ROUTING         DYNWAVE
START_DATE           01/01/2025
START_TIME           00:00:00
REPORT_START_DATE    01/01/2025
REPORT_START_TIME    00:00:00
END_DATE             01/01/2025
END_TIME             06:00:00
WET_STEP             00:05:00
DRY_STEP             01:00:00
ROUTING_STEP         00:00:30
ALLOW_PONDING        NO

[JUNCTIONS]
;;Name  Elevation  MaxDepth  InitDepth  SurDepth  Aponded
IN_1  421.180  6.430  0.000  0.000  0.000
IN_10  426.700  0.010  0.000  0.000  0.000
IN_100  401.450  7.550  0.000  0.000  0.000
IN_100_1  409.000  0.010  0.000  0.000  0.000
IN_101  408.200  0.010  0.000  0.000  0.000
IN_102  407.380  0.010  0.000  0.000  0.000
IN_103  404.320  0.010  0.000  0.000  0.000
IN_104  402.560  0.010  0.000  0.000  0.000
IN_105  404.320  0.010  0.000  0.000  0.000
IN_106  408.690  0.010  0.000  0.000  0.000
IN_106_1  405.900  0.010  0.000  0.000  0.000
IN_107  401.120  0.600  0.000  0.000  0.000
IN_108  401.420  0.300  0.000  0.000  0.000
IN_109  399.300  0.010  0.000  0.000  0.000
IN_11  424.850  0.010  0.000  0.000  0.000
IN_110_1  408.300  0.010  0.000  0.000  0.000
IN_111  408.000  0.010  0.000  0.000  0.000
IN_112  397.000  1.000  0.000  0.000  0.000
IN_112_1  397.320  0.010  0.000  0.000  0.000
IN_112_2  397.320  0.010  0.000  0.000  0.000
IN_113  396.570  0.010  0.000  0.000  0.000
IN_114  398.210  0.010  0.000  0.000  0.000
IN_115  391.500  0.010  0.000  0.000  0.000
IN_115_1  393.280  0.010  0.000  0.000  0.000
IN_116  389.910  0.090  0.000  0.000  0.000
IN_116_01  390.030  0.010  0.000  0.000  0.000
IN_116_02  390.000  0.010  0.000  0.000  0.000
IN_116_1  394.310  0.010  0.000  0.000  0.000
IN_116_2  389.940  0.260  0.000  0.000  0.000
IN_116_3  389.910  0.290  0.000  0.000  0.000
IN_116_4  390.030  0.170  0.000  0.000  0.000
IN_117  403.644  0.010  0.000  0.000  0.000
IN_117_1  403.644  0.010  0.000  0.000  0.000
IN_117_2  403.464  0.010  0.000  0.000  0.000
IN_118  402.614  0.010  0.000  0.000  0.000
IN_118_1  403.564  0.010  0.000  0.000  0.000
IN_119  403.874  0.010  0.000  0.000  0.000
IN_119_1  402.454  0.010  0.000  0.000  0.000
IN_119_2  405.150  0.010  0.000  0.000  0.000
IN_12  423.030  0.010  0.000  0.000  0.000
IN_120  405.834  0.010  0.000  0.000  0.000
IN_121  405.150  0.010  0.000  0.000  0.000
IN_122  403.354  0.010  0.000  0.000  0.000
IN_122_1  404.224  0.010  0.000  0.000  0.000
IN_122_2  403.274  0.010  0.000  0.000  0.000
IN_123  403.824  0.010  0.000  0.000  0.000
IN_123_1  403.824  0.010  0.000  0.000  0.000
IN_123_2  402.434  0.010  0.000  0.000  0.000
IN_123_3  402.454  0.010  0.000  0.000  0.000
IN_123_4  404.224  0.010  0.000  0.000  0.000
IN_124  403.624  0.010  0.000  0.000  0.000
IN_124_1  404.854  0.010  0.000  0.000  0.000
IN_124_2  401.314  0.010  0.000  0.000  0.000
IN_124_3  402.794  0.010  0.000  0.000  0.000
IN_124_4  403.704  0.010  0.000  0.000  0.000
IN_124_5  400.274  0.010  0.000  0.000  0.000
IN_124_6  403.690  0.010  0.000  0.000  0.000
IN_125  402.914  0.010  0.000  0.000  0.000
IN_126  402.364  0.010  0.000  0.000  0.000
IN_127  401.584  0.396  0.000  0.000  0.000
IN_127_1  401.114  0.866  0.000  0.000  0.000
IN_127_2  402.454  0.010  0.000  0.000  0.000
IN_128  402.324  0.010  0.000  0.000  0.000
IN_128_1  402.204  0.010  0.000  0.000  0.000
IN_128_2  402.454  0.010  0.000  0.000  0.000
IN_129  402.234  0.010  0.000  0.000  0.000
IN_129_1  402.284  0.010  0.000  0.000  0.000
IN_129_2  401.884  0.010  0.000  0.000  0.000
IN_13  423.860  0.010  0.000  0.000  0.000
IN_130  402.564  0.010  0.000  0.000  0.000
IN_130_1  401.834  0.010  0.000  0.000  0.000
IN_130_2  406.424  0.010  0.000  0.000  0.000
IN_130_3  400.954  0.010  0.000  0.000  0.000
IN_130_4  401.054  0.010  0.000  0.000  0.000
IN_130_5  401.444  0.010  0.000  0.000  0.000
IN_131  398.154  2.536  0.000  0.000  0.000
IN_132  399.300  1.390  0.000  0.000  0.000
IN_133  396.110  0.790  0.000  0.000  0.000
IN_134  395.440  1.460  0.000  0.000  0.000
IN_135  395.180  0.010  0.000  0.000  0.000
IN_136  397.490  0.010  0.000  0.000  0.000
IN_137  398.384  0.010  0.000  0.000  0.000
IN_137_1  397.144  0.010  0.000  0.000  0.000
IN_138  402.000  0.010  0.000  0.000  0.000
IN_139  398.154  0.010  0.000  0.000  0.000
IN_140  398.400  0.010  0.000  0.000  0.000
IN_141  400.100  0.010  0.000  0.000  0.000
IN_143  397.430  0.010  0.000  0.000  0.000
IN_144  397.850  0.010  0.000  0.000  0.000
IN_145  395.850  1.010  0.000  0.000  0.000
IN_146  397.490  0.010  0.000  0.000  0.000
IN_147  408.800  0.010  0.000  0.000  0.000
IN_148  412.930  0.010  0.000  0.000  0.000
IN_149  382.712  10.088  0.000  0.000  0.000
IN_15  422.230  0.010  0.000  0.000  0.000
IN_150  407.820  0.010  0.000  0.000  0.000
IN_151  401.340  0.170  0.000  0.000  0.000
IN_152  398.800  1.640  0.000  0.000  0.000
IN_153  404.860  0.010  0.000  0.000  0.000
IN_154  398.320  0.010  0.000  0.000  0.000
IN_155  398.320  0.010  0.000  0.000  0.000
IN_156  401.340  0.010  0.000  0.000  0.000
IN_157  394.500  0.010  0.000  0.000  0.000
IN_158  394.200  0.010  0.000  0.000  0.000
IN_159  393.000  0.010  0.000  0.000  0.000
IN_16  423.030  0.010  0.000  0.000  0.000
IN_160  394.600  0.010  0.000  0.000  0.000
IN_161  390.200  0.010  0.000  0.000  0.000
IN_162  397.190  0.010  0.000  0.000  0.000
IN_163  394.600  0.010  0.000  0.000  0.000
IN_164  400.384  0.010  0.000  0.000  0.000
IN_165  397.034  0.010  0.000  0.000  0.000
IN_165_1  400.484  0.010  0.000  0.000  0.000
IN_165_2  399.584  0.010  0.000  0.000  0.000
IN_165_3  400.274  0.010  0.000  0.000  0.000
IN_165_4  400.484  0.010  0.000  0.000  0.000
IN_165_5  399.924  0.010  0.000  0.000  0.000
IN_165_6  398.194  0.086  0.000  0.000  0.000
IN_165_7  397.524  0.756  0.000  0.000  0.000
IN_165_8  397.254  0.010  0.000  0.000  0.000
IN_165_9  398.064  0.010  0.000  0.000  0.000
IN_166  397.274  0.010  0.000  0.000  0.000
IN_166_1  400.644  0.010  0.000  0.000  0.000
IN_166_2  395.500  0.010  0.000  0.000  0.000
IN_167  394.870  0.010  0.000  0.000  0.000
IN_168  396.500  0.010  0.000  0.000  0.000
IN_169  393.560  0.010  0.000  0.000  0.000
IN_17  421.000  0.010  0.000  0.000  0.000
IN_170  393.200  0.010  0.000  0.000  0.000
IN_171  390.800  0.120  0.000  0.000  0.000
IN_172  394.140  0.010  0.000  0.000  0.000
IN_173  393.420  0.010  0.000  0.000  0.000
IN_174  395.480  0.010  0.000  0.000  0.000
IN_175  390.160  0.010  0.000  0.000  0.000
IN_176  390.160  0.010  0.000  0.000  0.000
IN_177  395.180  0.010  0.000  0.000  0.000
IN_178  395.860  0.010  0.000  0.000  0.000
IN_179  395.630  0.010  0.000  0.000  0.000
IN_18  425.490  0.010  0.000  0.000  0.000
IN_180  394.760  0.010  0.000  0.000  0.000
IN_181  395.380  0.010  0.000  0.000  0.000
IN_182  393.100  0.740  0.000  0.000  0.000
IN_183  391.600  0.010  0.000  0.000  0.000
IN_184  393.100  0.010  0.000  0.000  0.000
IN_185  389.120  0.010  0.000  0.000  0.000
IN_186  389.670  0.010  0.000  0.000  0.000
IN_187  389.670  0.010  0.000  0.000  0.000
IN_188  396.110  0.010  0.000  0.000  0.000
IN_189  389.290  0.010  0.000  0.000  0.000
IN_19  426.820  0.010  0.000  0.000  0.000
IN_190  388.650  0.010  0.000  0.000  0.000
IN_191  388.290  0.010  0.000  0.000  0.000
IN_192  388.640  0.010  0.000  0.000  0.000
IN_193  388.890  0.010  0.000  0.000  0.000
IN_194  394.900  0.010  0.000  0.000  0.000
IN_195  393.150  0.010  0.000  0.000  0.000
IN_196  397.000  0.010  0.000  0.000  0.000
IN_197  394.000  0.010  0.000  0.000  0.000
IN_198  392.100  0.010  0.000  0.000  0.000
IN_199  392.730  0.010  0.000  0.000  0.000
IN_2  436.500  0.010  0.000  0.000  0.000
IN_20  426.900  0.010  0.000  0.000  0.000
IN_200  393.750  0.010  0.000  0.000  0.000
IN_201  392.500  0.010  0.000  0.000  0.000
IN_202  392.460  0.010  0.000  0.000  0.000
IN_203  392.260  0.010  0.000  0.000  0.000
IN_204  394.500  0.010  0.000  0.000  0.000
IN_205  394.500  0.010  0.000  0.000  0.000
IN_206  401.360  0.010  0.000  0.000  0.000
IN_207  401.380  0.010  0.000  0.000  0.000
IN_208  400.570  0.010  0.000  0.000  0.000
IN_209  402.130  0.010  0.000  0.000  0.000
IN_21  424.800  0.010  0.000  0.000  0.000
IN_210  406.900  0.010  0.000  0.000  0.000
IN_211  402.930  0.010  0.000  0.000  0.000
IN_212  400.140  0.680  0.000  0.000  0.000
IN_213  395.300  5.520  0.000  0.000  0.000
IN_214  399.670  1.150  0.000  0.000  0.000
IN_215  398.500  0.010  0.000  0.000  0.000
IN_216  397.500  0.010  0.000  0.000  0.000
IN_217  400.400  0.010  0.000  0.000  0.000
IN_218  402.100  0.010  0.000  0.000  0.000
IN_219  401.770  0.010  0.000  0.000  0.000
IN_22  424.800  0.010  0.000  0.000  0.000
IN_220  396.700  0.500  0.000  0.000  0.000
IN_221  398.300  0.010  0.000  0.000  0.000
IN_222  394.300  0.010  0.000  0.000  0.000
IN_223  395.180  0.010  0.000  0.000  0.000
IN_224  394.300  0.400  0.000  0.000  0.000
IN_225  394.500  0.010  0.000  0.000  0.000
IN_226  393.400  0.010  0.000  0.000  0.000
IN_227  392.880  0.010  0.000  0.000  0.000
IN_228  391.900  0.200  0.000  0.000  0.000
IN_229  393.220  0.010  0.000  0.000  0.000
IN_23  418.800  0.010  0.000  0.000  0.000
IN_230  391.700  0.400  0.000  0.000  0.000
IN_231  395.690  0.010  0.000  0.000  0.000
IN_232  393.800  0.010  0.000  0.000  0.000
IN_233  391.500  0.010  0.000  0.000  0.000
IN_234  392.250  0.010  0.000  0.000  0.000
IN_235  390.500  0.010  0.000  0.000  0.000
IN_24  416.500  0.240  0.000  0.000  0.000
IN_25  417.910  0.010  0.000  0.000  0.000
IN_26  417.750  0.010  0.000  0.000  0.000
IN_27  417.680  0.010  0.000  0.000  0.000
IN_28  414.660  0.010  0.000  0.000  0.000
IN_29  414.240  0.010  0.000  0.000  0.000
IN_3  432.800  0.010  0.000  0.000  0.000
IN_30  417.900  0.010  0.000  0.000  0.000
IN_30_1  424.280  0.010  0.000  0.000  0.000
IN_31  424.280  0.010  0.000  0.000  0.000
IN_32  425.000  0.010  0.000  0.000  0.000
IN_33  417.800  0.010  0.000  0.000  0.000
IN_34  414.110  0.330  0.000  0.000  0.000
IN_35  415.300  0.010  0.000  0.000  0.000
IN_36  414.900  0.010  0.000  0.000  0.000
IN_37  415.550  0.010  0.000  0.000  0.000
IN_38  413.630  0.010  0.000  0.000  0.000
IN_39  411.190  0.010  0.000  0.000  0.000
IN_40  412.340  0.010  0.000  0.000  0.000
IN_41  412.950  0.010  0.000  0.000  0.000
IN_42  412.880  0.010  0.000  0.000  0.000
IN_43  412.850  0.010  0.000  0.000  0.000
IN_43_1  411.120  0.010  0.000  0.000  0.000
IN_44  418.800  0.010  0.000  0.000  0.000
IN_45  415.900  0.010  0.000  0.000  0.000
IN_46  415.500  0.010  0.000  0.000  0.000
IN_47  415.620  0.010  0.000  0.000  0.000
IN_48  413.000  0.010  0.000  0.000  0.000
IN_49  413.100  0.010  0.000  0.000  0.000
IN_5  428.700  0.010  0.000  0.000  0.000
IN_50  413.870  0.010  0.000  0.000  0.000
IN_51  411.550  0.010  0.000  0.000  0.000
IN_52  410.680  0.010  0.000  0.000  0.000
IN_52_1  410.680  0.010  0.000  0.000  0.000
IN_53  410.680  0.010  0.000  0.000  0.000
IN_54  410.860  0.010  0.000  0.000  0.000
IN_55  406.200  0.010  0.000  0.000  0.000
IN_56  407.150  0.010  0.000  0.000  0.000
IN_56_1  407.700  0.010  0.000  0.000  0.000
IN_57  409.050  0.010  0.000  0.000  0.000
IN_6  428.450  0.010  0.000  0.000  0.000
IN_60  408.690  0.010  0.000  0.000  0.000
IN_61  406.500  0.010  0.000  0.000  0.000
IN_62  406.260  0.010  0.000  0.000  0.000
IN_63  406.200  0.010  0.000  0.000  0.000
IN_66  407.900  0.010  0.000  0.000  0.000
IN_67  407.900  0.010  0.000  0.000  0.000
IN_6_1  426.310  0.510  0.000  0.000  0.000
IN_7  426.120  0.700  0.000  0.000  0.000
IN_74  401.020  3.980  0.000  0.000  0.000
IN_75  402.730  2.270  0.000  0.000  0.000
IN_75_1  403.550  0.010  0.000  0.000  0.000
IN_75_2  400.920  0.010  0.000  0.000  0.000
IN_75_25  405.430  0.010  0.000  0.000  0.000
IN_75_3  401.330  0.170  0.000  0.000  0.000
IN_75_4  399.890  1.610  0.000  0.000  0.000
IN_75_5  401.000  0.010  0.000  0.000  0.000
IN_75_6  401.070  0.010  0.000  0.000  0.000
IN_76  402.290  0.010  0.000  0.000  0.000
IN_76_1  400.270  0.010  0.000  0.000  0.000
IN_76_2  398.890  0.730  0.000  0.000  0.000
IN_76_3  398.870  0.010  0.000  0.000  0.000
IN_76_41  397.000  2.070  0.000  0.000  0.000
IN_76_42  398.000  1.070  0.000  0.000  0.000
IN_76_43  400.000  0.010  0.000  0.000  0.000
IN_76_5  399.000  0.010  0.000  0.000  0.000
IN_77  397.510  0.010  0.000  0.000  0.000
IN_77_1  397.510  0.010  0.000  0.000  0.000
IN_77_2  395.740  0.010  0.000  0.000  0.000
IN_77_3  398.940  0.010  0.000  0.000  0.000
IN_77_4  400.610  0.010  0.000  0.000  0.000
IN_77_5  395.740  2.030  0.000  0.000  0.000
IN_77_6  395.740  0.010  0.000  0.000  0.000
IN_79  395.860  0.010  0.000  0.000  0.000
IN_8  427.700  0.010  0.000  0.000  0.000
IN_80  395.860  0.010  0.000  0.000  0.000
IN_81  395.690  0.010  0.000  0.000  0.000
IN_82  392.600  0.010  0.000  0.000  0.000
IN_83  417.660  0.010  0.000  0.000  0.000
IN_84  417.660  0.010  0.000  0.000  0.000
IN_85  419.500  0.010  0.000  0.000  0.000
IN_86  410.540  0.740  0.000  0.000  0.000
IN_87  408.240  2.300  0.000  0.000  0.000
IN_88  410.540  0.010  0.000  0.000  0.000
IN_89  410.000  0.010  0.000  0.000  0.000
IN_9  428.700  0.010  0.000  0.000  0.000
IN_90  408.340  0.010  0.000  0.000  0.000
IN_91  406.560  0.010  0.000  0.000  0.000
IN_92  407.420  0.010  0.000  0.000  0.000
IN_93  406.220  0.010  0.000  0.000  0.000
IN_94  404.360  0.010  0.000  0.000  0.000
IN_95  410.000  0.010  0.000  0.000  0.000
IN_96  419.650  0.010  0.000  0.000  0.000
IN_97  411.300  0.010  0.000  0.000  0.000
IN_98  407.600  1.400  0.000  0.000  0.000
IN_99  408.020  0.980  0.000  0.000  0.000
J_1  421.130  6.480  0.000  0.000  0.000
J_100  379.400  11.110  0.000  0.000  0.000
J_101  379.478  21.872  0.000  0.000  0.000
J_101_1  379.609  21.901  0.000  0.000  0.000
J_102  379.967  22.433  0.000  0.000  0.000
J_102_1  379.986  22.414  0.000  0.000  0.000
J_102_2  379.994  23.036  0.000  0.000  0.000
J_102_3  380.004  23.026  0.000  0.000  0.000
J_102_4  380.123  22.877  0.000  0.000  0.000
J_103  380.188  20.852  0.000  0.000  0.000
J_103_1  380.384  21.266  0.000  0.000  0.000
J_103_2  380.399  21.251  0.000  0.000  0.000
J_103_3  380.422  20.848  0.000  0.000  0.000
J_103_4  380.442  19.828  0.000  0.000  0.000
J_103_5  380.466  20.784  0.000  0.000  0.000
J_104  380.507  20.083  0.000  0.000  0.000
J_105  380.607  18.433  0.000  0.000  0.000
J_105_1  380.618  18.752  0.000  0.000  0.000
J_105_2  380.715  18.465  0.000  0.000  0.000
J_105_3  380.723  18.617  0.000  0.000  0.000
J_105_4  380.733  18.447  0.000  0.000  0.000
J_106  380.896  19.514  0.000  0.000  0.000
J_107  381.011  20.969  0.000  0.000  0.000
J_108  381.126  19.244  0.000  0.000  0.000
J_108_1  381.134  19.316  0.000  0.000  0.000
J_108_2  381.141  19.659  0.000  0.000  0.000
J_108_3  381.147  19.303  0.000  0.000  0.000
J_108_4  381.149  19.301  0.000  0.000  0.000
J_109  381.180  20.280  0.000  0.000  0.000
J_109_1  381.257  20.573  0.000  0.000  0.000
J_109_2  381.311  19.509  0.000  0.000  0.000
J_11  409.230  8.370  0.000  0.000  0.000
J_110  381.427  19.523  0.000  0.000  0.000
J_110_1  381.442  18.068  0.000  0.000  0.000
J_110_2  381.579  19.371  0.000  0.000  0.000
J_110_3  381.603  19.087  0.000  0.000  0.000
J_111  381.690  15.210  0.000  0.000  0.000
J_112  387.530  7.040  0.000  0.000  0.000
J_113  386.660  6.840  0.000  0.000  0.000
J_113_1  386.630  6.850  0.000  0.000  0.000
J_113_2  386.554  8.446  0.000  0.000  0.000
J_114  386.538  10.272  0.000  0.000  0.000
J_114_1  386.400  10.100  0.000  0.000  0.000
J_114_2  386.331  8.709  0.000  0.000  0.000
J_115  386.290  8.710  0.000  0.000  0.000
J_116  383.834  14.866  0.000  0.000  0.000
J_117  382.190  14.670  0.000  0.000  0.000
J_118  383.580  10.070  0.000  0.000  0.000
J_119  381.330  12.930  0.000  0.000  0.000
J_12  412.690  7.090  0.000  0.000  0.000
J_120  385.130  7.020  0.000  0.000  0.000
J_121  380.080  12.720  0.000  0.000  0.000
J_122  395.950  6.080  0.000  0.000  0.000
J_123  393.850  7.660  0.000  0.000  0.000
J_124  390.790  9.650  0.000  0.000  0.000
J_125  387.130  7.580  0.000  0.000  0.000
J_126  386.900  7.590  0.000  0.000  0.000
J_127  386.380  8.350  0.000  0.000  0.000
J_128  383.060  9.870  0.000  0.000  0.000
J_129  381.690  9.910  0.000  0.000  0.000
J_13  411.880  6.490  0.000  0.000  0.000
J_130  380.020  12.780  0.000  0.000  0.000
J_131  378.810  12.110  0.000  0.000  0.000
J_132  379.000  10.940  0.000  0.000  0.000
J_132_1  378.720  10.100  0.000  0.000  0.000
J_133  377.450  11.370  0.000  0.000  0.000
J_134  377.382  11.488  0.000  0.000  0.000
J_134_1  377.350  9.650  0.000  0.000  0.000
J_135  382.470  7.650  0.000  0.000  0.000
J_136  390.444  5.506  0.000  0.000  0.000
J_136_1  389.392  8.668  0.000  0.000  0.000
J_136_2  389.076  8.684  0.000  0.000  0.000
J_136_3  389.034  8.726  0.000  0.000  0.000
J_136_4  388.988  8.592  0.000  0.000  0.000
J_136_5  388.954  8.626  0.000  0.000  0.000
J_136_6  388.248  10.032  0.000  0.000  0.000
J_136_7  387.554  8.376  0.000  0.000  0.000
J_136_8  386.976  9.424  0.000  0.000  0.000
J_136_9  386.414  9.326  0.000  0.000  0.000
J_137  385.144  8.176  0.000  0.000  0.000
J_137_1  384.706  7.144  0.000  0.000  0.000
J_137_2  384.666  7.184  0.000  0.000  0.000
J_138  384.500  7.560  0.000  0.000  0.000
J_139  384.140  6.780  0.000  0.000  0.000
J_14  409.880  7.730  0.000  0.000  0.000
J_140  383.810  6.720  0.000  0.000  0.000
J_141  383.400  6.300  0.000  0.000  0.000
J_142  386.490  6.010  0.000  0.000  0.000
J_143  382.100  7.680  0.000  0.000  0.000
J_144  382.170  5.880  0.000  0.000  0.000
J_145  381.660  6.900  0.000  0.000  0.000
J_146  388.240  5.830  0.000  0.000  0.000
J_147  385.880  8.190  0.000  0.000  0.000
J_148  386.820  6.450  0.000  0.000  0.000
J_149  386.220  7.620  0.000  0.000  0.000
J_15  408.830  8.770  0.000  0.000  0.000
J_150  381.760  7.260  0.000  0.000  0.000
J_151  380.590  7.330  0.000  0.000  0.000
J_152  380.760  6.390  0.000  0.000  0.000
J_153  380.490  7.680  0.000  0.000  0.000
J_153_1  380.570  7.350  0.000  0.000  0.000
J_154  380.020  7.540  0.000  0.000  0.000
J_155  379.960  7.670  0.000  0.000  0.000
J_156  378.180  9.010  0.000  0.000  0.000
J_157  386.768  5.232  0.000  0.000  0.000
J_158  386.570  5.430  0.000  0.000  0.000
J_159  385.416  7.084  0.000  0.000  0.000
J_159_1  384.086  7.614  0.000  0.000  0.000
J_159_2  383.672  8.028  0.000  0.000  0.000
J_16  410.620  5.840  0.000  0.000  0.000
J_160  382.250  8.550  0.000  0.000  0.000
J_161  380.980  9.620  0.000  0.000  0.000
J_162  380.120  11.430  0.000  0.000  0.000
J_163  381.005  10.095  0.000  0.000  0.000
J_164  381.630  10.470  0.000  0.000  0.000
J_165  379.500  12.600  0.000  0.000  0.000
J_166  391.350  8.780  0.000  0.000  0.000
J_167  392.000  7.180  0.000  0.000  0.000
J_168  380.650  21.080  0.000  0.000  0.000
J_169  389.910  10.910  0.000  0.000  0.000
J_17  409.540  10.020  0.000  0.000  0.000
J_170  387.468  7.032  0.000  0.000  0.000
J_171  386.717  8.283  0.000  0.000  0.000
J_172  386.041  10.459  0.000  0.000  0.000
J_173  384.922  12.278  0.000  0.000  0.000
J_174  382.735  11.015  0.000  0.000  0.000
J_175  381.917  11.583  0.000  0.000  0.000
J_176  381.751  12.949  0.000  0.000  0.000
J_177  379.647  12.053  0.000  0.000  0.000
J_178  379.280  12.640  0.000  0.000  0.000
J_179  381.390  9.110  0.000  0.000  0.000
J_18  408.280  8.460  0.000  0.000  0.000
J_180  379.189  12.905  0.000  0.000  0.000
J_180_1  379.180  12.920  0.000  0.000  0.000
J_180_2  380.908  11.192  0.000  0.000  0.000
J_181  382.660  5.840  0.000  0.000  0.000
J_182  380.336  12.380  0.000  0.000  0.000
J_182_1  380.334  12.386  0.000  0.000  0.000
J_182_2  379.646  13.074  0.000  0.000  0.000
J_183  378.666  14.384  0.000  0.000  0.000
J_184  378.306  14.674  0.000  0.000  0.000
J_185  382.000  8.000  0.000  0.000  0.000
J_186  380.940  8.000  0.000  0.000  0.000
J_187  381.400  8.000  0.000  0.000  0.000
J_19  407.780  6.580  0.000  0.000  0.000
J_2  420.360  8.140  0.000  0.000  0.000
J_20  407.230  7.610  0.000  0.000  0.000
J_21  406.200  6.900  0.000  0.000  0.000
J_22  405.540  9.510  0.000  0.000  0.000
J_23  405.190  8.600  0.000  0.000  0.000
J_24  405.360  7.790  0.000  0.000  0.000
J_25  404.880  8.740  0.000  0.000  0.000
J_26  404.070  9.690  0.000  0.000  0.000
J_26_1  407.330  7.970  0.000  0.000  0.000
J_27  407.950  6.520  0.000  0.000  0.000
J_27_1  406.750  7.770  0.000  0.000  0.000
J_28  403.850  10.320  0.000  0.000  0.000
J_29  403.040  11.400  0.000  0.000  0.000
J_3  418.960  7.860  0.000  0.000  0.000
J_30  403.980  7.630  0.000  0.000  0.000
J_31  402.240  9.220  0.000  0.000  0.000
J_32  405.170  7.330  0.000  0.000  0.000
J_33  404.760  8.250  0.000  0.000  0.000
J_34  404.560  6.940  0.000  0.000  0.000
J_35  402.380  8.210  0.000  0.000  0.000
J_36  400.959  9.441  0.000  0.000  0.000
J_37  400.830  8.780  0.000  0.000  0.000
J_38  400.880  8.890  0.000  0.000  0.000
J_39  400.670  8.630  0.000  0.000  0.000
J_4  417.560  5.770  0.000  0.000  0.000
J_40  402.600  7.190  0.000  0.000  0.000
J_41  400.000  8.500  0.000  0.000  0.000
J_42  400.170  9.020  0.000  0.000  0.000
J_43  408.260  6.730  0.000  0.000  0.000
J_44  406.120  6.900  0.000  0.000  0.000
J_45  405.020  5.380  0.000  0.000  0.000
J_46  404.650  5.980  0.000  0.000  0.000
J_47  401.530  6.970  0.000  0.000  0.000
J_48  401.260  7.240  0.000  0.000  0.000
J_49  398.870  7.930  0.000  0.000  0.000
J_4_1  417.270  6.820  0.000  0.000  0.000
J_5  417.270  6.820  0.000  0.000  0.000
J_50  400.150  6.850  0.000  0.000  0.000
J_51  398.970  7.830  0.000  0.000  0.000
J_52  397.790  8.360  0.000  0.000  0.000
J_53  397.760  8.060  0.000  0.000  0.000
J_54  396.620  8.050  0.000  0.000  0.000
J_55  396.608  8.552  0.000  0.000  0.000
J_57  396.430  8.390  0.000  0.000  0.000
J_6  415.890  9.280  0.000  0.000  0.000
J_61  396.950  7.870  0.000  0.000  0.000
J_62  393.940  10.310  0.000  0.000  0.000
J_63  392.730  11.960  0.000  0.000  0.000
J_65  365.290  39.710  0.000  0.000  0.000
J_65_1  388.760  11.700  0.000  0.000  0.000
J_65_2  389.097  10.463  0.000  0.000  0.000
J_65_25  389.893  9.327  0.000  0.000  0.000
J_65_3  390.706  10.794  0.000  0.000  0.000
J_68  391.166  6.824  0.000  0.000  0.000
J_68_05  392.026  7.514  0.000  0.000  0.000
J_68_1  392.090  7.460  0.000  0.000  0.000
J_69  387.180  12.440  0.000  0.000  0.000
J_6_1  413.120  8.340  0.000  0.000  0.000
J_7  413.870  7.980  0.000  0.000  0.000
J_70  389.470  8.900  0.000  0.000  0.000
J_70_01  389.470  8.860  0.000  0.000  0.000
J_70_1  391.410  6.160  0.000  0.000  0.000
J_70_2  388.970  10.100  0.000  0.000  0.000
J_70_3  387.750  9.750  0.000  0.000  0.000
J_70_4  385.750  12.060  0.000  0.000  0.000
J_71  384.580  12.620  0.000  0.000  0.000
J_71_1  381.230  15.970  0.000  0.000  0.000
J_71_2  383.093  9.977  0.000  0.000  0.000
J_71_3  384.439  9.311  0.000  0.000  0.000
J_71_4  386.167  7.543  0.000  0.000  0.000
J_71_5  389.870  7.900  0.000  0.000  0.000
J_71_6  386.770  8.300  0.000  0.000  0.000
J_71_7  384.880  10.120  0.000  0.000  0.000
J_71_8  384.820  10.180  0.000  0.000  0.000
J_71_9  380.460  16.540  0.000  0.000  0.000
J_72  380.420  16.780  0.000  0.000  0.000
J_74  379.610  15.570  0.000  0.000  0.000
J_75  377.980  14.260  0.000  0.000  0.000
J_76  384.310  6.950  0.000  0.000  0.000
J_77  377.580  14.420  0.000  0.000  0.000
J_78  405.230  6.140  0.000  0.000  0.000
J_78_1  405.180  6.100  0.000  0.000  0.000
J_79  401.750  7.380  0.000  0.000  0.000
J_7_1  413.100  8.450  0.000  0.000  0.000
J_8  414.690  7.310  0.000  0.000  0.000
J_80  401.140  9.400  0.000  0.000  0.000
J_81  398.100  7.880  0.000  0.000  0.000
J_81_1  397.290  8.910  0.000  0.000  0.000
J_82  396.610  9.530  0.000  0.000  0.000
J_83  393.430  9.070  0.000  0.000  0.000
J_83_1  393.430  9.320  0.000  0.000  0.000
J_84  398.500  10.000  0.000  0.000  0.000
J_84_1  399.635  9.365  0.000  0.000  0.000
J_85  399.830  9.170  0.000  0.000  0.000
J_86  398.590  6.360  0.000  0.000  0.000
J_87  396.930  12.070  0.000  0.000  0.000
J_88  394.550  3.450  0.000  0.000  0.000
J_88_1  392.840  8.660  0.000  0.000  0.000
J_89  394.812  4.488  0.000  0.000  0.000
J_9  413.120  8.280  0.000  0.000  0.000
J_90  395.710  5.930  0.000  0.000  0.000
J_90_1  395.670  6.210  0.000  0.000  0.000
J_91  395.376  5.824  0.000  0.000  0.000
J_92  394.960  6.760  0.000  0.000  0.000
J_93  391.030  5.770  0.000  0.000  0.000
J_94  387.050  9.750  0.000  0.000  0.000
J_94_1  388.910  8.090  0.000  0.000  0.000
J_94_2  392.220  6.120  0.000  0.000  0.000
J_94_4  388.170  10.230  0.000  0.000  0.000
J_95  385.100  12.900  0.000  0.000  0.000
J_95_1  386.227  4.873  0.000  0.000  0.000
J_95_15  386.680  7.320  0.000  0.000  0.000
J_95_2  385.740  8.100  0.000  0.000  0.000
J_95_3  382.390  12.610  0.000  0.000  0.000
J_95_4  380.180  11.310  0.000  0.000  0.000
J_96  379.910  10.150  0.000  0.000  0.000
J_96_1  379.859  10.141  0.000  0.000  0.000
J_97  379.793  9.707  0.000  0.000  0.000
J_97_1  379.757  9.753  0.000  0.000  0.000
J_98  379.730  10.470  0.000  0.000  0.000
J_99  379.488  9.512  0.000  0.000  0.000

[OUTFALLS]
;;Name  Elevation  Type  Stage Data  Gated  Route To
O_134  377.290  FREE
O_134_1  377.040  FREE
O_135  381.522  FREE
O_156  377.572  FREE
O_184  377.162  FREE
O_185  381.600  FREE
O_186  380.674  FREE
O_187  381.030  FREE
O_77  377.108  FREE

[CONDUITS]
;;Name  FromNode  ToNode  Length  Roughness  InOffset  OutOffset  InitFlow  MaxFlow
L_IN_1__J_1  IN_1  J_1  25.00  0.013  0.00  0.00  0.00  0.00
L_IN_2__J_1  IN_2  J_1  2150.00  0.013  0.00  0.00  0.00  0.00
L_IN_3__J_1  IN_3  J_1  650.00  0.013  0.00  0.00  0.00  0.00
L_IN_5__J_2  IN_5  J_2  690.00  0.013  0.00  0.00  0.00  0.00
L_IN_6__J_3  IN_6  J_3  1725.00  0.013  0.00  0.00  0.00  0.00
L_IN_6_1__J_3  IN_6_1  J_3  1228.00  0.013  0.00  0.00  0.00  0.00
L_IN_7__J_3  IN_7  J_3  1136.00  0.013  0.00  0.00  0.00  0.00
L_IN_8__J_4_1  IN_8  J_4_1  1180.00  0.013  0.00  0.00  0.00  0.00
L_IN_9__J_5  IN_9  J_5  865.00  0.013  0.00  0.00  0.00  0.00
L_IN_10__J_6  IN_10  J_6  1330.00  0.013  0.00  0.00  0.00  0.00
L_IN_11__J_6_1  IN_11  J_6_1  561.00  0.013  0.00  0.00  0.00  0.00
L_IN_12__J_7_1  IN_12  J_7_1  442.00  0.013  0.00  0.00  0.00  0.00
L_IN_13__J_7_1  IN_13  J_7_1  680.00  0.013  0.00  0.00  0.00  0.00
L_IN_15__J_9  IN_15  J_9  919.00  0.013  0.00  0.00  0.00  0.00
L_IN_16__J_11  IN_16  J_11  1205.00  0.013  0.00  0.00  0.00  0.00
L_IN_17__J_12  IN_17  J_12  977.00  0.013  0.00  0.00  0.00  0.00
L_IN_18__J_13  IN_18  J_13  1328.00  0.013  0.00  0.00  0.00  0.00
L_IN_19__J_15  IN_19  J_15  1630.00  0.013  0.00  0.00  0.00  0.00
L_IN_20__J_15  IN_20  J_15  1568.00  0.013  0.00  0.00  0.00  0.00
L_IN_21__J_16  IN_21  J_16  1735.00  0.013  0.00  0.00  0.00  0.00
L_IN_22__J_16  IN_22  J_16  1735.00  0.013  0.00  0.00  0.00  0.00
L_IN_23__J_18  IN_23  J_18  1101.00  0.013  0.00  0.00  0.00  0.00
L_IN_24__J_18  IN_24  J_18  634.00  0.013  0.00  0.00  0.00  0.00
L_IN_25__J_20  IN_25  J_20  1539.00  0.013  0.00  0.00  0.00  0.00
L_IN_26__J_21  IN_26  J_21  844.00  0.013  0.00  0.00  0.00  0.00
L_IN_27__J_21  IN_27  J_21  834.00  0.013  0.00  0.00  0.00  0.00
L_IN_28__J_23  IN_28  J_23  285.00  0.013  0.00  0.00  0.00  0.00
L_IN_29__J_23  IN_29  J_23  359.00  0.013  0.00  0.00  0.00  0.00
L_IN_30__J_25  IN_30  J_25  799.00  0.013  0.00  0.00  0.00  0.00
L_IN_30_1__J_26  IN_30_1  J_26  1903.00  0.013  0.00  0.00  0.00  0.00
L_IN_31__J_26_1  IN_31  J_26_1  1936.00  0.013  0.00  0.00  0.00  0.00
L_IN_32__J_27  IN_32  J_27  2207.00  0.013  0.00  0.00  0.00  0.00
L_IN_33__J_27_1  IN_33  J_27_1  779.00  0.013  0.00  0.00  0.00  0.00
L_IN_34__J_29  IN_34  J_29  670.00  0.013  0.00  0.00  0.00  0.00
L_IN_35__J_31  IN_35  J_31  939.00  0.013  0.00  0.00  0.00  0.00
L_IN_36__J_31  IN_36  J_31  774.00  0.013  0.00  0.00  0.00  0.00
L_IN_37__J_32  IN_37  J_32  676.00  0.013  0.00  0.00  0.00  0.00
L_IN_38__J_34  IN_38  J_34  1309.00  0.013  0.00  0.00  0.00  0.00
L_IN_39__J_35  IN_39  J_35  100.00  0.013  0.00  0.00  0.00  0.00
L_IN_40__J_37  IN_40  J_37  791.00  0.013  0.00  0.00  0.00  0.00
L_IN_41__J_37  IN_41  J_37  1027.00  0.013  0.00  0.00  0.00  0.00
L_IN_42__J_39  IN_42  J_39  952.00  0.013  0.00  0.00  0.00  0.00
L_IN_43__J_40  IN_43  J_40  1369.00  0.013  0.00  0.00  0.00  0.00
L_IN_43_1__J_40  IN_43_1  J_40  726.00  0.013  0.00  0.00  0.00  0.00
L_IN_44__J_42  IN_44  J_42  1256.00  0.013  0.00  0.00  0.00  0.00
L_IN_45__J_43  IN_45  J_43  1060.00  0.013  0.00  0.00  0.00  0.00
L_IN_46__J_44  IN_46  J_44  1780.00  0.013  0.00  0.00  0.00  0.00
L_IN_47__J_45  IN_47  J_45  621.00  0.013  0.00  0.00  0.00  0.00
L_IN_48__J_46  IN_48  J_46  1213.00  0.013  0.00  0.00  0.00  0.00
L_IN_49__J_46  IN_49  J_46  1863.00  0.013  0.00  0.00  0.00  0.00
L_IN_50__J_48  IN_50  J_48  2472.00  0.013  0.00  0.00  0.00  0.00
L_IN_51__J_49  IN_51  J_49  1015.00  0.013  0.00  0.00  0.00  0.00
L_IN_52__J_51  IN_52  J_51  1745.00  0.013  0.00  0.00  0.00  0.00
L_IN_52_1__J_51  IN_52_1  J_51  1828.00  0.013  0.00  0.00  0.00  0.00
L_IN_53__J_51  IN_53  J_51  1585.00  0.013  0.00  0.00  0.00  0.00
L_IN_54__J_53  IN_54  J_53  2284.00  0.013  0.00  0.00  0.00  0.00
L_IN_55__J_53  IN_55  J_53  1769.00  0.013  0.00  0.00  0.00  0.00
L_IN_56__J_54  IN_56  J_54  595.00  0.013  0.00  0.00  0.00  0.00
L_IN_56_1__J_54  IN_56_1  J_54  892.00  0.013  0.00  0.00  0.00  0.00
L_IN_57__J_55  IN_57  J_55  1526.00  0.013  0.00  0.00  0.00  0.00
L_IN_60__J_57  IN_60  J_57  1152.00  0.013  0.00  0.00  0.00  0.00
L_IN_61__J_57  IN_61  J_57  922.00  0.013  0.00  0.00  0.00  0.00
L_IN_62__J_62  IN_62  J_62  535.00  0.013  0.00  0.00  0.00  0.00
L_IN_63__J_62  IN_63  J_62  564.00  0.013  0.00  0.00  0.00  0.00
L_IN_66__J_63  IN_66  J_63  876.00  0.013  0.00  0.00  0.00  0.00
L_IN_67__J_63  IN_67  J_63  886.00  0.013  0.00  0.00  0.00  0.00